Program Version,EnergyPlus, Version 24.2.0-94a887817b, YMD=2025.03.07 16:45
! <Version>, Version ID
 Version, 24.1
! <Timesteps per Hour>, #TimeSteps, Minutes per TimeStep {minutes}
 Timesteps per Hour,  1, 60
! <System Convergence Limits>, Minimum System TimeStep {minutes}, Max HVAC Iterations, Minimum Plant Iterations, Maximum Plant Iterations
 System Convergence Limits, 1, 20, 2, 8
! <Simulation Control>, Do Zone Sizing, Do System Sizing, Do Plant Sizing, Do Design Days, Do Weather Simulation, Do HVAC Sizing Simulation
 Simulation Control, Yes, Yes, No, No, Yes, No
! <Performance Precision Tradeoffs>, Use Coil Direct Simulation, Zone Radiant Exchange Algorithm, Override Mode, Number of Timestep In Hour, Force Euler Method, Minimum Number of Warmup Days, Force Suppress All Begin Environment Resets, Minimum System Timestep, MaxZoneTempDiff, MaxAllowedDelTemp
 Performance Precision Tradeoffs, No, ScriptF, Normal, 1, No, 1, No, 1.0, 0.300, 2.0000E-003
! <Output Reporting Tolerances>, Tolerance for Time Heating Setpoint Not Met, Tolerance for Zone Cooling Setpoint Not Met Time
 Output Reporting Tolerances, 0.200, 0.200, 
! <Site:GroundTemperature:BuildingSurface>,Jan{C},Feb{C},Mar{C},Apr{C},May{C},Jun{C},Jul{C},Aug{C},Sep{C},Oct{C},Nov{C},Dec{C}
 Site:GroundTemperature:BuildingSurface,  18.00,  18.00,  18.00,  18.00,  18.00,  18.00,  18.00,  18.00,  18.00,  18.00,  18.00,  18.00
! <Site:GroundTemperature:FCfactorMethod>,Jan{C},Feb{C},Mar{C},Apr{C},May{C},Jun{C},Jul{C},Aug{C},Sep{C},Oct{C},Nov{C},Dec{C}
 Site:GroundTemperature:FCfactorMethod,  10.53,   7.43,   5.53,   4.95,   6.09,   8.67,  11.86,  14.99,  17.09,  17.58,  16.37,  13.83
! <Site:GroundTemperature:Shallow>,Jan{C},Feb{C},Mar{C},Apr{C},May{C},Jun{C},Jul{C},Aug{C},Sep{C},Oct{C},Nov{C},Dec{C}
 Site:GroundTemperature:Shallow,  13.00,  13.00,  13.00,  13.00,  13.00,  13.00,  13.00,  13.00,  13.00,  13.00,  13.00,  13.00
! <Site:GroundTemperature:Deep>,Jan{C},Feb{C},Mar{C},Apr{C},May{C},Jun{C},Jul{C},Aug{C},Sep{C},Oct{C},Nov{C},Dec{C}
 Site:GroundTemperature:Deep,  16.00,  16.00,  16.00,  16.00,  16.00,  16.00,  16.00,  16.00,  16.00,  16.00,  16.00,  16.00
! <Site:GroundReflectance>,Jan{dimensionless},Feb{dimensionless},Mar{dimensionless},Apr{dimensionless},May{dimensionless},Jun{dimensionless},Jul{dimensionless},Aug{dimensionless},Sep{dimensionless},Oct{dimensionless},Nov{dimensionless},Dec{dimensionless}
 Site:GroundReflectance,  0.20,  0.20,  0.20,  0.20,  0.20,  0.20,  0.20,  0.20,  0.20,  0.20,  0.20,  0.20
! <Site:GroundReflectance:SnowModifier>, Normal, Daylighting {dimensionless}
 Site:GroundReflectance:SnowModifier,   1.000,   1.000
! <Site:GroundReflectance:Snow>,Jan{dimensionless},Feb{dimensionless},Mar{dimensionless},Apr{dimensionless},May{dimensionless},Jun{dimensionless},Jul{dimensionless},Aug{dimensionless},Sep{dimensionless},Oct{dimensionless},Nov{dimensionless},Dec{dimensionless}
 Site:GroundReflectance:Snow,  0.20,  0.20,  0.20,  0.20,  0.20,  0.20,  0.20,  0.20,  0.20,  0.20,  0.20,  0.20
! <Site:GroundReflectance:Snow:Daylighting>,Jan{dimensionless},Feb{dimensionless},Mar{dimensionless},Apr{dimensionless},May{dimensionless},Jun{dimensionless},Jul{dimensionless},Aug{dimensionless},Sep{dimensionless},Oct{dimensionless},Nov{dimensionless},Dec{dimensionless}
 Site:GroundReflectance:Snow:Daylighting,  0.20,  0.20,  0.20,  0.20,  0.20,  0.20,  0.20,  0.20,  0.20,  0.20,  0.20,  0.20
! <Environment:Weather Station>,Wind Sensor Height Above Ground {m},Wind Speed Profile Exponent {},Wind Speed Profile Boundary Layer Thickness {m},Air Temperature Sensor Height Above Ground {m},Wind Speed Modifier Coefficient-Internal,Temperature Modifier Coefficient-Internal
Environment:Weather Station,10.000,0.140,270.000,1.500,1.586,9.750E-003
! <Site:Location>, Location Name, Latitude {N+/S- Deg}, Longitude {E+/W- Deg},  Time Zone Number {GMT+/-}, Elevation {m},  Standard Pressure at Elevation {Pa}, Standard RhoAir at Elevation
Site:Location,Rotterdam.The.Hague.AP ZH NLD SRC-TMYx WMO#=063440,51.96,4.45,1.00,-4.50,101379,1.2050
! <Site Water Mains Temperature Information>,Calculation Method{},Water Mains Temperature Schedule Name{},Annual Average Outdoor Air Temperature{C},Maximum Difference In Monthly Average Outdoor Air Temperatures{deltaC},Fixed Default Water Mains Temperature{C}
Site Water Mains Temperature Information,FixedDefault,NA,NA,NA,10.0
! <Building Information>, Building Name,North Axis {deg},Terrain,  Loads Convergence Tolerance Value,Temperature Convergence Tolerance Value,  Solar Distribution,Maximum Number of Warmup Days,Minimum Number of Warmup Days
 Building Information,Building 1,0.000,Suburbs,4.00000E-002,0.40000,FullExterior,25,1
! <Inside Convection Algorithm>, Algorithm {Simple | TARP | CeilingDiffuser | AdaptiveConvectionAlgorithm}
Inside Convection Algorithm,TARP
! <Outside Convection Algorithm>, Algorithm {SimpleCombined | TARP | MoWitt | DOE-2 | AdaptiveConvectionAlgorithm}
Outside Convection Algorithm,DOE-2
! <Sky Radiance Distribution>, Value {Anisotropic}
Sky Radiance Distribution,Anisotropic
! <Zone Air Solution Algorithm>, Algorithm {ThirdOrderBackwardDifference | AnalyticalSolution | EulerMethod}, Space Heat Balance Sizing, Space Heat Balance Simulation
 Zone Air Solution Algorithm, ThirdOrderBackwardDifference, No, No
! <Zone Air Carbon Dioxide Balance Simulation>, Simulation {Yes/No}, Carbon Dioxide Concentration
 Zone Air Carbon Dioxide Balance Simulation, No,N/A
! <Zone Air Generic Contaminant Balance Simulation>, Simulation {Yes/No}, Generic Contaminant Concentration
 Zone Air Generic Contaminant Balance Simulation, No,N/A
! <Zone Air Mass Flow Balance Simulation>, Enforce Mass Balance, Adjust Zone Mixing and Return {AdjustMixingOnly | AdjustReturnOnly | AdjustMixingThenReturn | AdjustReturnThenMixing | None}, Adjust Zone Infiltration {AddInfiltration | AdjustInfiltration | None}, Infiltration Zones {MixingSourceZonesOnly | AllZones}
 Zone Air Mass Flow Balance Simulation, No,N/A,N/A,N/A
! <HVACSystemRootFindingAlgorithm>, Value {RegulaFalsi | Bisection | BisectionThenRegulaFalsi | RegulaFalsiThenBisection}
 HVACSystemRootFindingAlgorithm, RegulaFalsi
! <Environment:Site Atmospheric Variation>,Wind Speed Profile Exponent {},Wind Speed Profile Boundary Layer Thickness {m},Air Temperature Gradient Coefficient {K/m}
Environment:Site Atmospheric Variation,0.220,370.000,6.500000E-003
! <Shadowing/Sun Position Calculations Annual Simulations>, Shading Calculation Method, Shading Calculation Update Frequency Method, Shading Calculation Update Frequency {days}, Maximum Figures in Shadow Overlap Calculations {}, Polygon Clipping Algorithm, Pixel Counting Resolution, Sky Diffuse Modeling Algorithm, Output External Shading Calculation Results, Disable Self-Shading Within Shading Zone Groups, Disable Self-Shading From Shading Zone Groups to Other Zones
Shadowing/Sun Position Calculations Annual Simulations,PolygonClipping,Periodic,20,15000,SutherlandHodgman,512,SimpleSkyDiffuseModeling,No,No,No
! <Surface Geometry>,Starting Corner,Vertex Input Direction,Coordinate System,Daylight Reference Point Coordinate System,Rectangular (Simple) Surface Coordinate System
 Surface Geometry,UpperLeftCorner,Counterclockwise,RelativeCoordinateSystem,RelativeCoordinateSystem,RelativeToZoneOrigin
! <Surface Heat Transfer Algorithm>, Value {CTF - ConductionTransferFunction | EMPD - MoisturePenetrationDepthConductionTransferFunction | CondFD - ConductionFiniteDifference | HAMT - CombinedHeatAndMoistureFiniteElement} - Description,Inside Surface Max Temperature Limit{C}, Surface Convection Coefficient Lower Limit {W/m2-K}, Surface Convection Coefficient Upper Limit {W/m2-K}
Surface Heat Transfer Algorithm, CTF - ConductionTransferFunction,200,0.10,1000.0
! <Shading Summary>, Number of Fixed Detached Shades, Number of Building Detached Shades, Number of Attached Shades
 Shading Summary,0,0,0
! <Zone Summary>, Number of Zones, Number of Zone Surfaces, Number of SubSurfaces
 Zone Summary,65,448,192
! <Zone Information>,Zone Name,North Axis {deg},Origin X-Coordinate {m},Origin Y-Coordinate {m},Origin Z-Coordinate {m},Centroid X-Coordinate {m},Centroid Y-Coordinate {m},Centroid Z-Coordinate {m},Type,Zone Multiplier,Zone List Multiplier,Minimum X {m},Maximum X {m},Minimum Y {m},Maximum Y {m},Minimum Z {m},Maximum Z {m},Ceiling Height {m},Volume {m3},Zone Inside Convection Algorithm {Simple-Detailed-CeilingDiffuser-TrombeWall},Zone Outside Convection Algorithm {Simple-Detailed-Tarp-MoWitt-DOE-2-BLAST}, Floor Area {m2},Exterior Gross Wall Area {m2},Exterior Net Wall Area {m2},Exterior Window Area {m2}, Number of Surfaces, Number of SubSurfaces, Number of Shading SubSurfaces,  Part of Total Building Area
 Zone Information, GREENHOUSE ZONE ROOF,0.0,0.00,0.00,0.00,16.00,16.00,4.42,1,1,1,0.00,32.00,0.00,32.00,4.00,4.85,-99999.00,434.66,TARP,DOE-2,0.00,0.00,0.00,1059.64,160,160,0,Yes
 Zone Information, GREENHOUSE_ZONE_0_0,0.0,0.00,0.00,0.00,1.33,1.33,1.33,1,1,1,0.00,4.00,0.00,4.00,0.00,4.00,4.00,64.00,TARP,DOE-2,16.00,32.00,1.27,30.42,3,2,0,Yes
 Zone Information, GREENHOUSE_ZONE_0_1,0.0,0.00,0.00,0.00,1.00,6.00,1.00,1,1,1,0.00,4.00,4.00,8.00,0.00,4.00,4.00,64.00,TARP,DOE-2,16.00,16.00,0.63,15.21,2,1,0,Yes
 Zone Information, GREENHOUSE_ZONE_0_2,0.0,0.00,0.00,0.00,1.00,10.00,1.00,1,1,1,0.00,4.00,8.00,12.00,0.00,4.00,4.00,64.00,TARP,DOE-2,16.00,16.00,0.63,15.21,2,1,0,Yes
 Zone Information, GREENHOUSE_ZONE_0_3,0.0,0.00,0.00,0.00,1.00,14.00,1.00,1,1,1,0.00,4.00,12.00,16.00,0.00,4.00,4.00,64.00,TARP,DOE-2,16.00,16.00,0.63,15.21,2,1,0,Yes
 Zone Information, GREENHOUSE_ZONE_0_4,0.0,0.00,0.00,0.00,1.00,18.00,1.00,1,1,1,0.00,4.00,16.00,20.00,0.00,4.00,4.00,64.00,TARP,DOE-2,16.00,16.00,0.63,15.21,2,1,0,Yes
 Zone Information, GREENHOUSE_ZONE_0_5,0.0,0.00,0.00,0.00,1.00,22.00,1.00,1,1,1,0.00,4.00,20.00,24.00,0.00,4.00,4.00,64.00,TARP,DOE-2,16.00,16.00,0.63,15.21,2,1,0,Yes
 Zone Information, GREENHOUSE_ZONE_0_6,0.0,0.00,0.00,0.00,1.00,26.00,1.00,1,1,1,0.00,4.00,24.00,28.00,0.00,4.00,4.00,64.00,TARP,DOE-2,16.00,16.00,0.63,15.21,2,1,0,Yes
 Zone Information, GREENHOUSE_ZONE_0_7,0.0,0.00,0.00,0.00,1.33,30.67,1.33,1,1,1,0.00,4.00,28.00,32.00,0.00,4.00,4.00,64.00,TARP,DOE-2,16.00,32.00,1.27,30.42,3,2,0,Yes
 Zone Information, GREENHOUSE_ZONE_1_0,0.0,0.00,0.00,0.00,6.00,1.00,1.00,1,1,1,4.00,8.00,0.00,4.00,0.00,4.00,4.00,64.00,TARP,DOE-2,16.00,16.00,0.63,15.21,2,1,0,Yes
 Zone Information, GREENHOUSE_ZONE_1_1,0.0,0.00,0.00,0.00,6.00,6.00,0.00,1,1,1,4.00,8.00,4.00,8.00,0.00,0.00,-99999.00,10.00,TARP,DOE-2,16.00,0.00,0.00,0.00,1,0,0,Yes
 Zone Information, GREENHOUSE_ZONE_1_2,0.0,0.00,0.00,0.00,6.00,10.00,0.00,1,1,1,4.00,8.00,8.00,12.00,0.00,0.00,-99999.00,10.00,TARP,DOE-2,16.00,0.00,0.00,0.00,1,0,0,Yes
 Zone Information, GREENHOUSE_ZONE_1_3,0.0,0.00,0.00,0.00,6.00,14.00,0.00,1,1,1,4.00,8.00,12.00,16.00,0.00,0.00,-99999.00,10.00,TARP,DOE-2,16.00,0.00,0.00,0.00,1,0,0,Yes
 Zone Information, GREENHOUSE_ZONE_1_4,0.0,0.00,0.00,0.00,6.00,18.00,0.00,1,1,1,4.00,8.00,16.00,20.00,0.00,0.00,-99999.00,10.00,TARP,DOE-2,16.00,0.00,0.00,0.00,1,0,0,Yes
 Zone Information, GREENHOUSE_ZONE_1_5,0.0,0.00,0.00,0.00,6.00,22.00,0.00,1,1,1,4.00,8.00,20.00,24.00,0.00,0.00,-99999.00,10.00,TARP,DOE-2,16.00,0.00,0.00,0.00,1,0,0,Yes
 Zone Information, GREENHOUSE_ZONE_1_6,0.0,0.00,0.00,0.00,6.00,26.00,0.00,1,1,1,4.00,8.00,24.00,28.00,0.00,0.00,-99999.00,10.00,TARP,DOE-2,16.00,0.00,0.00,0.00,1,0,0,Yes
 Zone Information, GREENHOUSE_ZONE_1_7,0.0,0.00,0.00,0.00,6.00,31.00,1.00,1,1,1,4.00,8.00,28.00,32.00,0.00,4.00,4.00,64.00,TARP,DOE-2,16.00,16.00,0.63,15.21,2,1,0,Yes
 Zone Information, GREENHOUSE_ZONE_2_0,0.0,0.00,0.00,0.00,10.00,1.00,1.00,1,1,1,8.00,12.00,0.00,4.00,0.00,4.00,4.00,64.00,TARP,DOE-2,16.00,16.00,0.63,15.21,2,1,0,Yes
 Zone Information, GREENHOUSE_ZONE_2_1,0.0,0.00,0.00,0.00,10.00,6.00,0.00,1,1,1,8.00,12.00,4.00,8.00,0.00,0.00,-99999.00,10.00,TARP,DOE-2,16.00,0.00,0.00,0.00,1,0,0,Yes
 Zone Information, GREENHOUSE_ZONE_2_2,0.0,0.00,0.00,0.00,10.00,10.00,0.00,1,1,1,8.00,12.00,8.00,12.00,0.00,0.00,-99999.00,10.00,TARP,DOE-2,16.00,0.00,0.00,0.00,1,0,0,Yes
 Zone Information, GREENHOUSE_ZONE_2_3,0.0,0.00,0.00,0.00,10.00,14.00,0.00,1,1,1,8.00,12.00,12.00,16.00,0.00,0.00,-99999.00,10.00,TARP,DOE-2,16.00,0.00,0.00,0.00,1,0,0,Yes
 Zone Information, GREENHOUSE_ZONE_2_4,0.0,0.00,0.00,0.00,10.00,18.00,0.00,1,1,1,8.00,12.00,16.00,20.00,0.00,0.00,-99999.00,10.00,TARP,DOE-2,16.00,0.00,0.00,0.00,1,0,0,Yes
 Zone Information, GREENHOUSE_ZONE_2_5,0.0,0.00,0.00,0.00,10.00,22.00,0.00,1,1,1,8.00,12.00,20.00,24.00,0.00,0.00,-99999.00,10.00,TARP,DOE-2,16.00,0.00,0.00,0.00,1,0,0,Yes
 Zone Information, GREENHOUSE_ZONE_2_6,0.0,0.00,0.00,0.00,10.00,26.00,0.00,1,1,1,8.00,12.00,24.00,28.00,0.00,0.00,-99999.00,10.00,TARP,DOE-2,16.00,0.00,0.00,0.00,1,0,0,Yes
 Zone Information, GREENHOUSE_ZONE_2_7,0.0,0.00,0.00,0.00,10.00,31.00,1.00,1,1,1,8.00,12.00,28.00,32.00,0.00,4.00,4.00,64.00,TARP,DOE-2,16.00,16.00,0.63,15.21,2,1,0,Yes
 Zone Information, GREENHOUSE_ZONE_3_0,0.0,0.00,0.00,0.00,14.00,1.00,1.00,1,1,1,12.00,16.00,0.00,4.00,0.00,4.00,4.00,64.00,TARP,DOE-2,16.00,16.00,0.63,15.21,2,1,0,Yes
 Zone Information, GREENHOUSE_ZONE_3_1,0.0,0.00,0.00,0.00,14.00,6.00,0.00,1,1,1,12.00,16.00,4.00,8.00,0.00,0.00,-99999.00,10.00,TARP,DOE-2,16.00,0.00,0.00,0.00,1,0,0,Yes
 Zone Information, GREENHOUSE_ZONE_3_2,0.0,0.00,0.00,0.00,14.00,10.00,0.00,1,1,1,12.00,16.00,8.00,12.00,0.00,0.00,-99999.00,10.00,TARP,DOE-2,16.00,0.00,0.00,0.00,1,0,0,Yes
 Zone Information, GREENHOUSE_ZONE_3_3,0.0,0.00,0.00,0.00,14.00,14.00,0.00,1,1,1,12.00,16.00,12.00,16.00,0.00,0.00,-99999.00,10.00,TARP,DOE-2,16.00,0.00,0.00,0.00,1,0,0,Yes
 Zone Information, GREENHOUSE_ZONE_3_4,0.0,0.00,0.00,0.00,14.00,18.00,0.00,1,1,1,12.00,16.00,16.00,20.00,0.00,0.00,-99999.00,10.00,TARP,DOE-2,16.00,0.00,0.00,0.00,1,0,0,Yes
 Zone Information, GREENHOUSE_ZONE_3_5,0.0,0.00,0.00,0.00,14.00,22.00,0.00,1,1,1,12.00,16.00,20.00,24.00,0.00,0.00,-99999.00,10.00,TARP,DOE-2,16.00,0.00,0.00,0.00,1,0,0,Yes
 Zone Information, GREENHOUSE_ZONE_3_6,0.0,0.00,0.00,0.00,14.00,26.00,0.00,1,1,1,12.00,16.00,24.00,28.00,0.00,0.00,-99999.00,10.00,TARP,DOE-2,16.00,0.00,0.00,0.00,1,0,0,Yes
 Zone Information, GREENHOUSE_ZONE_3_7,0.0,0.00,0.00,0.00,14.00,31.00,1.00,1,1,1,12.00,16.00,28.00,32.00,0.00,4.00,4.00,64.00,TARP,DOE-2,16.00,16.00,0.63,15.21,2,1,0,Yes
 Zone Information, GREENHOUSE_ZONE_4_0,0.0,0.00,0.00,0.00,18.00,1.00,1.00,1,1,1,16.00,20.00,0.00,4.00,0.00,4.00,4.00,64.00,TARP,DOE-2,16.00,16.00,0.63,15.21,2,1,0,Yes
 Zone Information, GREENHOUSE_ZONE_4_1,0.0,0.00,0.00,0.00,18.00,6.00,0.00,1,1,1,16.00,20.00,4.00,8.00,0.00,0.00,-99999.00,10.00,TARP,DOE-2,16.00,0.00,0.00,0.00,1,0,0,Yes
 Zone Information, GREENHOUSE_ZONE_4_2,0.0,0.00,0.00,0.00,18.00,10.00,0.00,1,1,1,16.00,20.00,8.00,12.00,0.00,0.00,-99999.00,10.00,TARP,DOE-2,16.00,0.00,0.00,0.00,1,0,0,Yes
 Zone Information, GREENHOUSE_ZONE_4_3,0.0,0.00,0.00,0.00,18.00,14.00,0.00,1,1,1,16.00,20.00,12.00,16.00,0.00,0.00,-99999.00,10.00,TARP,DOE-2,16.00,0.00,0.00,0.00,1,0,0,Yes
 Zone Information, GREENHOUSE_ZONE_4_4,0.0,0.00,0.00,0.00,18.00,18.00,0.00,1,1,1,16.00,20.00,16.00,20.00,0.00,0.00,-99999.00,10.00,TARP,DOE-2,16.00,0.00,0.00,0.00,1,0,0,Yes
 Zone Information, GREENHOUSE_ZONE_4_5,0.0,0.00,0.00,0.00,18.00,22.00,0.00,1,1,1,16.00,20.00,20.00,24.00,0.00,0.00,-99999.00,10.00,TARP,DOE-2,16.00,0.00,0.00,0.00,1,0,0,Yes
 Zone Information, GREENHOUSE_ZONE_4_6,0.0,0.00,0.00,0.00,18.00,26.00,0.00,1,1,1,16.00,20.00,24.00,28.00,0.00,0.00,-99999.00,10.00,TARP,DOE-2,16.00,0.00,0.00,0.00,1,0,0,Yes
 Zone Information, GREENHOUSE_ZONE_4_7,0.0,0.00,0.00,0.00,18.00,31.00,1.00,1,1,1,16.00,20.00,28.00,32.00,0.00,4.00,4.00,64.00,TARP,DOE-2,16.00,16.00,0.63,15.21,2,1,0,Yes
 Zone Information, GREENHOUSE_ZONE_5_0,0.0,0.00,0.00,0.00,22.00,1.00,1.00,1,1,1,20.00,24.00,0.00,4.00,0.00,4.00,4.00,64.00,TARP,DOE-2,16.00,16.00,0.63,15.21,2,1,0,Yes
 Zone Information, GREENHOUSE_ZONE_5_1,0.0,0.00,0.00,0.00,22.00,6.00,0.00,1,1,1,20.00,24.00,4.00,8.00,0.00,0.00,-99999.00,10.00,TARP,DOE-2,16.00,0.00,0.00,0.00,1,0,0,Yes
 Zone Information, GREENHOUSE_ZONE_5_2,0.0,0.00,0.00,0.00,22.00,10.00,0.00,1,1,1,20.00,24.00,8.00,12.00,0.00,0.00,-99999.00,10.00,TARP,DOE-2,16.00,0.00,0.00,0.00,1,0,0,Yes
 Zone Information, GREENHOUSE_ZONE_5_3,0.0,0.00,0.00,0.00,22.00,14.00,0.00,1,1,1,20.00,24.00,12.00,16.00,0.00,0.00,-99999.00,10.00,TARP,DOE-2,16.00,0.00,0.00,0.00,1,0,0,Yes
 Zone Information, GREENHOUSE_ZONE_5_4,0.0,0.00,0.00,0.00,22.00,18.00,0.00,1,1,1,20.00,24.00,16.00,20.00,0.00,0.00,-99999.00,10.00,TARP,DOE-2,16.00,0.00,0.00,0.00,1,0,0,Yes
 Zone Information, GREENHOUSE_ZONE_5_5,0.0,0.00,0.00,0.00,22.00,22.00,0.00,1,1,1,20.00,24.00,20.00,24.00,0.00,0.00,-99999.00,10.00,TARP,DOE-2,16.00,0.00,0.00,0.00,1,0,0,Yes
 Zone Information, GREENHOUSE_ZONE_5_6,0.0,0.00,0.00,0.00,22.00,26.00,0.00,1,1,1,20.00,24.00,24.00,28.00,0.00,0.00,-99999.00,10.00,TARP,DOE-2,16.00,0.00,0.00,0.00,1,0,0,Yes
 Zone Information, GREENHOUSE_ZONE_5_7,0.0,0.00,0.00,0.00,22.00,31.00,1.00,1,1,1,20.00,24.00,28.00,32.00,0.00,4.00,4.00,64.00,TARP,DOE-2,16.00,16.00,0.63,15.21,2,1,0,Yes
 Zone Information, GREENHOUSE_ZONE_6_0,0.0,0.00,0.00,0.00,26.00,1.00,1.00,1,1,1,24.00,28.00,0.00,4.00,0.00,4.00,4.00,64.00,TARP,DOE-2,16.00,16.00,0.63,15.21,2,1,0,Yes
 Zone Information, GREENHOUSE_ZONE_6_1,0.0,0.00,0.00,0.00,26.00,6.00,0.00,1,1,1,24.00,28.00,4.00,8.00,0.00,0.00,-99999.00,10.00,TARP,DOE-2,16.00,0.00,0.00,0.00,1,0,0,Yes
 Zone Information, GREENHOUSE_ZONE_6_2,0.0,0.00,0.00,0.00,26.00,10.00,0.00,1,1,1,24.00,28.00,8.00,12.00,0.00,0.00,-99999.00,10.00,TARP,DOE-2,16.00,0.00,0.00,0.00,1,0,0,Yes
 Zone Information, GREENHOUSE_ZONE_6_3,0.0,0.00,0.00,0.00,26.00,14.00,0.00,1,1,1,24.00,28.00,12.00,16.00,0.00,0.00,-99999.00,10.00,TARP,DOE-2,16.00,0.00,0.00,0.00,1,0,0,Yes
 Zone Information, GREENHOUSE_ZONE_6_4,0.0,0.00,0.00,0.00,26.00,18.00,0.00,1,1,1,24.00,28.00,16.00,20.00,0.00,0.00,-99999.00,10.00,TARP,DOE-2,16.00,0.00,0.00,0.00,1,0,0,Yes
 Zone Information, GREENHOUSE_ZONE_6_5,0.0,0.00,0.00,0.00,26.00,22.00,0.00,1,1,1,24.00,28.00,20.00,24.00,0.00,0.00,-99999.00,10.00,TARP,DOE-2,16.00,0.00,0.00,0.00,1,0,0,Yes
 Zone Information, GREENHOUSE_ZONE_6_6,0.0,0.00,0.00,0.00,26.00,26.00,0.00,1,1,1,24.00,28.00,24.00,28.00,0.00,0.00,-99999.00,10.00,TARP,DOE-2,16.00,0.00,0.00,0.00,1,0,0,Yes
 Zone Information, GREENHOUSE_ZONE_6_7,0.0,0.00,0.00,0.00,26.00,31.00,1.00,1,1,1,24.00,28.00,28.00,32.00,0.00,4.00,4.00,64.00,TARP,DOE-2,16.00,16.00,0.63,15.21,2,1,0,Yes
 Zone Information, GREENHOUSE_ZONE_7_0,0.0,0.00,0.00,0.00,30.67,1.33,1.33,1,1,1,28.00,32.00,0.00,4.00,0.00,4.00,4.00,64.00,TARP,DOE-2,16.00,32.00,1.27,30.42,3,2,0,Yes
 Zone Information, GREENHOUSE_ZONE_7_1,0.0,0.00,0.00,0.00,31.00,6.00,1.00,1,1,1,28.00,32.00,4.00,8.00,0.00,4.00,4.00,64.00,TARP,DOE-2,16.00,16.00,0.63,15.21,2,1,0,Yes
 Zone Information, GREENHOUSE_ZONE_7_2,0.0,0.00,0.00,0.00,31.00,10.00,1.00,1,1,1,28.00,32.00,8.00,12.00,0.00,4.00,4.00,64.00,TARP,DOE-2,16.00,16.00,0.63,15.21,2,1,0,Yes
 Zone Information, GREENHOUSE_ZONE_7_3,0.0,0.00,0.00,0.00,31.00,14.00,1.00,1,1,1,28.00,32.00,12.00,16.00,0.00,4.00,4.00,64.00,TARP,DOE-2,16.00,16.00,0.63,15.21,2,1,0,Yes
 Zone Information, GREENHOUSE_ZONE_7_4,0.0,0.00,0.00,0.00,31.00,18.00,1.00,1,1,1,28.00,32.00,16.00,20.00,0.00,4.00,4.00,64.00,TARP,DOE-2,16.00,16.00,0.63,15.21,2,1,0,Yes
 Zone Information, GREENHOUSE_ZONE_7_5,0.0,0.00,0.00,0.00,31.00,22.00,1.00,1,1,1,28.00,32.00,20.00,24.00,0.00,4.00,4.00,64.00,TARP,DOE-2,16.00,16.00,0.63,15.21,2,1,0,Yes
 Zone Information, GREENHOUSE_ZONE_7_6,0.0,0.00,0.00,0.00,31.00,26.00,1.00,1,1,1,28.00,32.00,24.00,28.00,0.00,4.00,4.00,64.00,TARP,DOE-2,16.00,16.00,0.63,15.21,2,1,0,Yes
 Zone Information, GREENHOUSE_ZONE_7_7,0.0,0.00,0.00,0.00,30.67,30.67,1.33,1,1,1,28.00,32.00,28.00,32.00,0.00,4.00,4.00,64.00,TARP,DOE-2,16.00,32.00,1.27,30.42,3,2,0,Yes
! <Zone Internal Gains Nominal>,Zone Name, Floor Area {m2},# Occupants,Area per Occupant {m2/person},Occupant per Area {person/m2},Interior Lighting {W/m2},Electric Load {W/m2},Gas Load {W/m2},Other Load {W/m2},Hot Water Eq {W/m2},Steam Equipment {W/m2},Sum Loads per Area {W/m2},Outdoor Controlled Baseboard Heat
 Zone Internal Gains Nominal, GREENHOUSE ZONE ROOF,0.00,0.0,0.0,N/A,N/A,N/A,N/A,N/A,N/A,N/A,N/A,No
 Zone Internal Gains Nominal, GREENHOUSE_ZONE_0_0,16.00,0.0,N/A,0.000,0.000,0.000,0.000,0.000,0.000,0.000,0.000,No
 Zone Internal Gains Nominal, GREENHOUSE_ZONE_0_1,16.00,0.0,N/A,0.000,0.000,0.000,0.000,0.000,0.000,0.000,0.000,No
 Zone Internal Gains Nominal, GREENHOUSE_ZONE_0_2,16.00,0.0,N/A,0.000,0.000,0.000,0.000,0.000,0.000,0.000,0.000,No
 Zone Internal Gains Nominal, GREENHOUSE_ZONE_0_3,16.00,0.0,N/A,0.000,0.000,0.000,0.000,0.000,0.000,0.000,0.000,No
 Zone Internal Gains Nominal, GREENHOUSE_ZONE_0_4,16.00,0.0,N/A,0.000,0.000,0.000,0.000,0.000,0.000,0.000,0.000,No
 Zone Internal Gains Nominal, GREENHOUSE_ZONE_0_5,16.00,0.0,N/A,0.000,0.000,0.000,0.000,0.000,0.000,0.000,0.000,No
 Zone Internal Gains Nominal, GREENHOUSE_ZONE_0_6,16.00,0.0,N/A,0.000,0.000,0.000,0.000,0.000,0.000,0.000,0.000,No
 Zone Internal Gains Nominal, GREENHOUSE_ZONE_0_7,16.00,0.0,N/A,0.000,0.000,0.000,0.000,0.000,0.000,0.000,0.000,No
 Zone Internal Gains Nominal, GREENHOUSE_ZONE_1_0,16.00,0.0,N/A,0.000,0.000,0.000,0.000,0.000,0.000,0.000,0.000,No
 Zone Internal Gains Nominal, GREENHOUSE_ZONE_1_1,16.00,0.0,N/A,0.000,0.000,0.000,0.000,0.000,0.000,0.000,0.000,No
 Zone Internal Gains Nominal, GREENHOUSE_ZONE_1_2,16.00,0.0,N/A,0.000,0.000,0.000,0.000,0.000,0.000,0.000,0.000,No
 Zone Internal Gains Nominal, GREENHOUSE_ZONE_1_3,16.00,0.0,N/A,0.000,0.000,0.000,0.000,0.000,0.000,0.000,0.000,No
 Zone Internal Gains Nominal, GREENHOUSE_ZONE_1_4,16.00,0.0,N/A,0.000,0.000,0.000,0.000,0.000,0.000,0.000,0.000,No
 Zone Internal Gains Nominal, GREENHOUSE_ZONE_1_5,16.00,0.0,N/A,0.000,0.000,0.000,0.000,0.000,0.000,0.000,0.000,No
 Zone Internal Gains Nominal, GREENHOUSE_ZONE_1_6,16.00,0.0,N/A,0.000,0.000,0.000,0.000,0.000,0.000,0.000,0.000,No
 Zone Internal Gains Nominal, GREENHOUSE_ZONE_1_7,16.00,0.0,N/A,0.000,0.000,0.000,0.000,0.000,0.000,0.000,0.000,No
 Zone Internal Gains Nominal, GREENHOUSE_ZONE_2_0,16.00,0.0,N/A,0.000,0.000,0.000,0.000,0.000,0.000,0.000,0.000,No
 Zone Internal Gains Nominal, GREENHOUSE_ZONE_2_1,16.00,0.0,N/A,0.000,0.000,0.000,0.000,0.000,0.000,0.000,0.000,No
 Zone Internal Gains Nominal, GREENHOUSE_ZONE_2_2,16.00,0.0,N/A,0.000,0.000,0.000,0.000,0.000,0.000,0.000,0.000,No
 Zone Internal Gains Nominal, GREENHOUSE_ZONE_2_3,16.00,0.0,N/A,0.000,0.000,0.000,0.000,0.000,0.000,0.000,0.000,No
 Zone Internal Gains Nominal, GREENHOUSE_ZONE_2_4,16.00,0.0,N/A,0.000,0.000,0.000,0.000,0.000,0.000,0.000,0.000,No
 Zone Internal Gains Nominal, GREENHOUSE_ZONE_2_5,16.00,0.0,N/A,0.000,0.000,0.000,0.000,0.000,0.000,0.000,0.000,No
 Zone Internal Gains Nominal, GREENHOUSE_ZONE_2_6,16.00,0.0,N/A,0.000,0.000,0.000,0.000,0.000,0.000,0.000,0.000,No
 Zone Internal Gains Nominal, GREENHOUSE_ZONE_2_7,16.00,0.0,N/A,0.000,0.000,0.000,0.000,0.000,0.000,0.000,0.000,No
 Zone Internal Gains Nominal, GREENHOUSE_ZONE_3_0,16.00,0.0,N/A,0.000,0.000,0.000,0.000,0.000,0.000,0.000,0.000,No
 Zone Internal Gains Nominal, GREENHOUSE_ZONE_3_1,16.00,0.0,N/A,0.000,0.000,0.000,0.000,0.000,0.000,0.000,0.000,No
 Zone Internal Gains Nominal, GREENHOUSE_ZONE_3_2,16.00,0.0,N/A,0.000,0.000,0.000,0.000,0.000,0.000,0.000,0.000,No
 Zone Internal Gains Nominal, GREENHOUSE_ZONE_3_3,16.00,0.0,N/A,0.000,0.000,0.000,0.000,0.000,0.000,0.000,0.000,No
 Zone Internal Gains Nominal, GREENHOUSE_ZONE_3_4,16.00,0.0,N/A,0.000,0.000,0.000,0.000,0.000,0.000,0.000,0.000,No
 Zone Internal Gains Nominal, GREENHOUSE_ZONE_3_5,16.00,0.0,N/A,0.000,0.000,0.000,0.000,0.000,0.000,0.000,0.000,No
 Zone Internal Gains Nominal, GREENHOUSE_ZONE_3_6,16.00,0.0,N/A,0.000,0.000,0.000,0.000,0.000,0.000,0.000,0.000,No
 Zone Internal Gains Nominal, GREENHOUSE_ZONE_3_7,16.00,0.0,N/A,0.000,0.000,0.000,0.000,0.000,0.000,0.000,0.000,No
 Zone Internal Gains Nominal, GREENHOUSE_ZONE_4_0,16.00,0.0,N/A,0.000,0.000,0.000,0.000,0.000,0.000,0.000,0.000,No
 Zone Internal Gains Nominal, GREENHOUSE_ZONE_4_1,16.00,0.0,N/A,0.000,0.000,0.000,0.000,0.000,0.000,0.000,0.000,No
 Zone Internal Gains Nominal, GREENHOUSE_ZONE_4_2,16.00,0.0,N/A,0.000,0.000,0.000,0.000,0.000,0.000,0.000,0.000,No
 Zone Internal Gains Nominal, GREENHOUSE_ZONE_4_3,16.00,0.0,N/A,0.000,0.000,0.000,0.000,0.000,0.000,0.000,0.000,No
 Zone Internal Gains Nominal, GREENHOUSE_ZONE_4_4,16.00,0.0,N/A,0.000,0.000,0.000,0.000,0.000,0.000,0.000,0.000,No
 Zone Internal Gains Nominal, GREENHOUSE_ZONE_4_5,16.00,0.0,N/A,0.000,0.000,0.000,0.000,0.000,0.000,0.000,0.000,No
 Zone Internal Gains Nominal, GREENHOUSE_ZONE_4_6,16.00,0.0,N/A,0.000,0.000,0.000,0.000,0.000,0.000,0.000,0.000,No
 Zone Internal Gains Nominal, GREENHOUSE_ZONE_4_7,16.00,0.0,N/A,0.000,0.000,0.000,0.000,0.000,0.000,0.000,0.000,No
 Zone Internal Gains Nominal, GREENHOUSE_ZONE_5_0,16.00,0.0,N/A,0.000,0.000,0.000,0.000,0.000,0.000,0.000,0.000,No
 Zone Internal Gains Nominal, GREENHOUSE_ZONE_5_1,16.00,0.0,N/A,0.000,0.000,0.000,0.000,0.000,0.000,0.000,0.000,No
 Zone Internal Gains Nominal, GREENHOUSE_ZONE_5_2,16.00,0.0,N/A,0.000,0.000,0.000,0.000,0.000,0.000,0.000,0.000,No
 Zone Internal Gains Nominal, GREENHOUSE_ZONE_5_3,16.00,0.0,N/A,0.000,0.000,0.000,0.000,0.000,0.000,0.000,0.000,No
 Zone Internal Gains Nominal, GREENHOUSE_ZONE_5_4,16.00,0.0,N/A,0.000,0.000,0.000,0.000,0.000,0.000,0.000,0.000,No
 Zone Internal Gains Nominal, GREENHOUSE_ZONE_5_5,16.00,0.0,N/A,0.000,0.000,0.000,0.000,0.000,0.000,0.000,0.000,No
 Zone Internal Gains Nominal, GREENHOUSE_ZONE_5_6,16.00,0.0,N/A,0.000,0.000,0.000,0.000,0.000,0.000,0.000,0.000,No
 Zone Internal Gains Nominal, GREENHOUSE_ZONE_5_7,16.00,0.0,N/A,0.000,0.000,0.000,0.000,0.000,0.000,0.000,0.000,No
 Zone Internal Gains Nominal, GREENHOUSE_ZONE_6_0,16.00,0.0,N/A,0.000,0.000,0.000,0.000,0.000,0.000,0.000,0.000,No
 Zone Internal Gains Nominal, GREENHOUSE_ZONE_6_1,16.00,0.0,N/A,0.000,0.000,0.000,0.000,0.000,0.000,0.000,0.000,No
 Zone Internal Gains Nominal, GREENHOUSE_ZONE_6_2,16.00,0.0,N/A,0.000,0.000,0.000,0.000,0.000,0.000,0.000,0.000,No
 Zone Internal Gains Nominal, GREENHOUSE_ZONE_6_3,16.00,0.0,N/A,0.000,0.000,0.000,0.000,0.000,0.000,0.000,0.000,No
 Zone Internal Gains Nominal, GREENHOUSE_ZONE_6_4,16.00,0.0,N/A,0.000,0.000,0.000,0.000,0.000,0.000,0.000,0.000,No
 Zone Internal Gains Nominal, GREENHOUSE_ZONE_6_5,16.00,0.0,N/A,0.000,0.000,0.000,0.000,0.000,0.000,0.000,0.000,No
 Zone Internal Gains Nominal, GREENHOUSE_ZONE_6_6,16.00,0.0,N/A,0.000,0.000,0.000,0.000,0.000,0.000,0.000,0.000,No
 Zone Internal Gains Nominal, GREENHOUSE_ZONE_6_7,16.00,0.0,N/A,0.000,0.000,0.000,0.000,0.000,0.000,0.000,0.000,No
 Zone Internal Gains Nominal, GREENHOUSE_ZONE_7_0,16.00,0.0,N/A,0.000,0.000,0.000,0.000,0.000,0.000,0.000,0.000,No
 Zone Internal Gains Nominal, GREENHOUSE_ZONE_7_1,16.00,0.0,N/A,0.000,0.000,0.000,0.000,0.000,0.000,0.000,0.000,No
 Zone Internal Gains Nominal, GREENHOUSE_ZONE_7_2,16.00,0.0,N/A,0.000,0.000,0.000,0.000,0.000,0.000,0.000,0.000,No
 Zone Internal Gains Nominal, GREENHOUSE_ZONE_7_3,16.00,0.0,N/A,0.000,0.000,0.000,0.000,0.000,0.000,0.000,0.000,No
 Zone Internal Gains Nominal, GREENHOUSE_ZONE_7_4,16.00,0.0,N/A,0.000,0.000,0.000,0.000,0.000,0.000,0.000,0.000,No
 Zone Internal Gains Nominal, GREENHOUSE_ZONE_7_5,16.00,0.0,N/A,0.000,0.000,0.000,0.000,0.000,0.000,0.000,0.000,No
 Zone Internal Gains Nominal, GREENHOUSE_ZONE_7_6,16.00,0.0,N/A,0.000,0.000,0.000,0.000,0.000,0.000,0.000,0.000,No
 Zone Internal Gains Nominal, GREENHOUSE_ZONE_7_7,16.00,0.0,N/A,0.000,0.000,0.000,0.000,0.000,0.000,0.000,0.000,No
! <Mixing Airflow Stats Nominal>,Name,Schedule Name,Zone Name, Zone Floor Area {m2}, # Zone Occupants,Design Volume Flow Rate {m3/s},Volume Flow Rate/Floor Area {m3/s-m2},Volume Flow Rate/person Area {m3/s-person},ACH - Air Changes per Hour,From/Source Zone,Delta Temperature {C}
 Mixing Airflow Stats Nominal, AIR MIXING FROM ZONE (0&#44 0) TO (0&#44 1),ALWAYS ON CONTINUOUS,GREENHOUSE_ZONE_0_0,16.00,0.0,0.100,6.250E-003,N/A,5.625,GREENHOUSE_ZONE_0_1,0.00
 Mixing Airflow Stats Nominal, AIR MIXING FROM ZONE (0&#44 0) TO (1&#44 0),ALWAYS ON CONTINUOUS,GREENHOUSE_ZONE_0_0,16.00,0.0,0.100,6.250E-003,N/A,5.625,GREENHOUSE_ZONE_1_0,0.00
 Mixing Airflow Stats Nominal, AIR MIXING FROM ZONE (0&#44 1) TO (0&#44 0),ALWAYS ON CONTINUOUS,GREENHOUSE_ZONE_0_1,16.00,0.0,0.100,6.250E-003,N/A,5.625,GREENHOUSE_ZONE_0_0,0.00
 Mixing Airflow Stats Nominal, AIR MIXING FROM ZONE (0&#44 1) TO (0&#44 2),ALWAYS ON CONTINUOUS,GREENHOUSE_ZONE_0_1,16.00,0.0,0.100,6.250E-003,N/A,5.625,GREENHOUSE_ZONE_0_2,0.00
 Mixing Airflow Stats Nominal, AIR MIXING FROM ZONE (0&#44 1) TO (1&#44 1),ALWAYS ON CONTINUOUS,GREENHOUSE_ZONE_0_1,16.00,0.0,0.100,6.250E-003,N/A,5.625,GREENHOUSE_ZONE_1_1,0.00
 Mixing Airflow Stats Nominal, AIR MIXING FROM ZONE (0&#44 2) TO (0&#44 1),ALWAYS ON CONTINUOUS,GREENHOUSE_ZONE_0_2,16.00,0.0,0.100,6.250E-003,N/A,5.625,GREENHOUSE_ZONE_0_1,0.00
 Mixing Airflow Stats Nominal, AIR MIXING FROM ZONE (0&#44 2) TO (0&#44 3),ALWAYS ON CONTINUOUS,GREENHOUSE_ZONE_0_2,16.00,0.0,0.100,6.250E-003,N/A,5.625,GREENHOUSE_ZONE_0_3,0.00
 Mixing Airflow Stats Nominal, AIR MIXING FROM ZONE (0&#44 2) TO (1&#44 2),ALWAYS ON CONTINUOUS,GREENHOUSE_ZONE_0_2,16.00,0.0,0.100,6.250E-003,N/A,5.625,GREENHOUSE_ZONE_1_2,0.00
 Mixing Airflow Stats Nominal, AIR MIXING FROM ZONE (0&#44 3) TO (0&#44 2),ALWAYS ON CONTINUOUS,GREENHOUSE_ZONE_0_3,16.00,0.0,0.100,6.250E-003,N/A,5.625,GREENHOUSE_ZONE_0_2,0.00
 Mixing Airflow Stats Nominal, AIR MIXING FROM ZONE (0&#44 3) TO (0&#44 4),ALWAYS ON CONTINUOUS,GREENHOUSE_ZONE_0_3,16.00,0.0,0.100,6.250E-003,N/A,5.625,GREENHOUSE_ZONE_0_4,0.00
 Mixing Airflow Stats Nominal, AIR MIXING FROM ZONE (0&#44 3) TO (1&#44 3),ALWAYS ON CONTINUOUS,GREENHOUSE_ZONE_0_3,16.00,0.0,0.100,6.250E-003,N/A,5.625,GREENHOUSE_ZONE_1_3,0.00
 Mixing Airflow Stats Nominal, AIR MIXING FROM ZONE (0&#44 4) TO (0&#44 3),ALWAYS ON CONTINUOUS,GREENHOUSE_ZONE_0_4,16.00,0.0,0.100,6.250E-003,N/A,5.625,GREENHOUSE_ZONE_0_3,0.00
 Mixing Airflow Stats Nominal, AIR MIXING FROM ZONE (0&#44 4) TO (0&#44 5),ALWAYS ON CONTINUOUS,GREENHOUSE_ZONE_0_4,16.00,0.0,0.100,6.250E-003,N/A,5.625,GREENHOUSE_ZONE_0_5,0.00
 Mixing Airflow Stats Nominal, AIR MIXING FROM ZONE (0&#44 4) TO (1&#44 4),ALWAYS ON CONTINUOUS,GREENHOUSE_ZONE_0_4,16.00,0.0,0.100,6.250E-003,N/A,5.625,GREENHOUSE_ZONE_1_4,0.00
 Mixing Airflow Stats Nominal, AIR MIXING FROM ZONE (0&#44 5) TO (0&#44 4),ALWAYS ON CONTINUOUS,GREENHOUSE_ZONE_0_5,16.00,0.0,0.100,6.250E-003,N/A,5.625,GREENHOUSE_ZONE_0_4,0.00
 Mixing Airflow Stats Nominal, AIR MIXING FROM ZONE (0&#44 5) TO (0&#44 6),ALWAYS ON CONTINUOUS,GREENHOUSE_ZONE_0_5,16.00,0.0,0.100,6.250E-003,N/A,5.625,GREENHOUSE_ZONE_0_6,0.00
 Mixing Airflow Stats Nominal, AIR MIXING FROM ZONE (0&#44 5) TO (1&#44 5),ALWAYS ON CONTINUOUS,GREENHOUSE_ZONE_0_5,16.00,0.0,0.100,6.250E-003,N/A,5.625,GREENHOUSE_ZONE_1_5,0.00
 Mixing Airflow Stats Nominal, AIR MIXING FROM ZONE (0&#44 6) TO (0&#44 5),ALWAYS ON CONTINUOUS,GREENHOUSE_ZONE_0_6,16.00,0.0,0.100,6.250E-003,N/A,5.625,GREENHOUSE_ZONE_0_5,0.00
 Mixing Airflow Stats Nominal, AIR MIXING FROM ZONE (0&#44 6) TO (0&#44 7),ALWAYS ON CONTINUOUS,GREENHOUSE_ZONE_0_6,16.00,0.0,0.100,6.250E-003,N/A,5.625,GREENHOUSE_ZONE_0_7,0.00
 Mixing Airflow Stats Nominal, AIR MIXING FROM ZONE (0&#44 6) TO (1&#44 6),ALWAYS ON CONTINUOUS,GREENHOUSE_ZONE_0_6,16.00,0.0,0.100,6.250E-003,N/A,5.625,GREENHOUSE_ZONE_1_6,0.00
 Mixing Airflow Stats Nominal, AIR MIXING FROM ZONE (0&#44 7) TO (0&#44 6),ALWAYS ON CONTINUOUS,GREENHOUSE_ZONE_0_7,16.00,0.0,0.100,6.250E-003,N/A,5.625,GREENHOUSE_ZONE_0_6,0.00
 Mixing Airflow Stats Nominal, AIR MIXING FROM ZONE (0&#44 7) TO (1&#44 7),ALWAYS ON CONTINUOUS,GREENHOUSE_ZONE_0_7,16.00,0.0,0.100,6.250E-003,N/A,5.625,GREENHOUSE_ZONE_1_7,0.00
 Mixing Airflow Stats Nominal, AIR MIXING FROM ZONE (1&#44 0) TO (0&#44 0),ALWAYS ON CONTINUOUS,GREENHOUSE_ZONE_1_0,16.00,0.0,0.100,6.250E-003,N/A,5.625,GREENHOUSE_ZONE_0_0,0.00
 Mixing Airflow Stats Nominal, AIR MIXING FROM ZONE (1&#44 0) TO (1&#44 1),ALWAYS ON CONTINUOUS,GREENHOUSE_ZONE_1_0,16.00,0.0,0.100,6.250E-003,N/A,5.625,GREENHOUSE_ZONE_1_1,0.00
 Mixing Airflow Stats Nominal, AIR MIXING FROM ZONE (1&#44 0) TO (2&#44 0),ALWAYS ON CONTINUOUS,GREENHOUSE_ZONE_1_0,16.00,0.0,0.100,6.250E-003,N/A,5.625,GREENHOUSE_ZONE_2_0,0.00
 Mixing Airflow Stats Nominal, AIR MIXING FROM ZONE (1&#44 1) TO (0&#44 1),ALWAYS ON CONTINUOUS,GREENHOUSE_ZONE_1_1,16.00,0.0,0.100,6.250E-003,N/A,36.000,GREENHOUSE_ZONE_0_1,0.00
 Mixing Airflow Stats Nominal, AIR MIXING FROM ZONE (1&#44 1) TO (1&#44 0),ALWAYS ON CONTINUOUS,GREENHOUSE_ZONE_1_1,16.00,0.0,0.100,6.250E-003,N/A,36.000,GREENHOUSE_ZONE_1_0,0.00
 Mixing Airflow Stats Nominal, AIR MIXING FROM ZONE (1&#44 1) TO (1&#44 2),ALWAYS ON CONTINUOUS,GREENHOUSE_ZONE_1_1,16.00,0.0,0.100,6.250E-003,N/A,36.000,GREENHOUSE_ZONE_1_2,0.00
 Mixing Airflow Stats Nominal, AIR MIXING FROM ZONE (1&#44 1) TO (2&#44 1),ALWAYS ON CONTINUOUS,GREENHOUSE_ZONE_1_1,16.00,0.0,0.100,6.250E-003,N/A,36.000,GREENHOUSE_ZONE_2_1,0.00
 Mixing Airflow Stats Nominal, AIR MIXING FROM ZONE (1&#44 2) TO (0&#44 2),ALWAYS ON CONTINUOUS,GREENHOUSE_ZONE_1_2,16.00,0.0,0.100,6.250E-003,N/A,36.000,GREENHOUSE_ZONE_0_2,0.00
 Mixing Airflow Stats Nominal, AIR MIXING FROM ZONE (1&#44 2) TO (1&#44 1),ALWAYS ON CONTINUOUS,GREENHOUSE_ZONE_1_2,16.00,0.0,0.100,6.250E-003,N/A,36.000,GREENHOUSE_ZONE_1_1,0.00
 Mixing Airflow Stats Nominal, AIR MIXING FROM ZONE (1&#44 2) TO (1&#44 3),ALWAYS ON CONTINUOUS,GREENHOUSE_ZONE_1_2,16.00,0.0,0.100,6.250E-003,N/A,36.000,GREENHOUSE_ZONE_1_3,0.00
 Mixing Airflow Stats Nominal, AIR MIXING FROM ZONE (1&#44 2) TO (2&#44 2),ALWAYS ON CONTINUOUS,GREENHOUSE_ZONE_1_2,16.00,0.0,0.100,6.250E-003,N/A,36.000,GREENHOUSE_ZONE_2_2,0.00
 Mixing Airflow Stats Nominal, AIR MIXING FROM ZONE (1&#44 3) TO (0&#44 3),ALWAYS ON CONTINUOUS,GREENHOUSE_ZONE_1_3,16.00,0.0,0.100,6.250E-003,N/A,36.000,GREENHOUSE_ZONE_0_3,0.00
 Mixing Airflow Stats Nominal, AIR MIXING FROM ZONE (1&#44 3) TO (1&#44 2),ALWAYS ON CONTINUOUS,GREENHOUSE_ZONE_1_3,16.00,0.0,0.100,6.250E-003,N/A,36.000,GREENHOUSE_ZONE_1_2,0.00
 Mixing Airflow Stats Nominal, AIR MIXING FROM ZONE (1&#44 3) TO (1&#44 4),ALWAYS ON CONTINUOUS,GREENHOUSE_ZONE_1_3,16.00,0.0,0.100,6.250E-003,N/A,36.000,GREENHOUSE_ZONE_1_4,0.00
 Mixing Airflow Stats Nominal, AIR MIXING FROM ZONE (1&#44 3) TO (2&#44 3),ALWAYS ON CONTINUOUS,GREENHOUSE_ZONE_1_3,16.00,0.0,0.100,6.250E-003,N/A,36.000,GREENHOUSE_ZONE_2_3,0.00
 Mixing Airflow Stats Nominal, AIR MIXING FROM ZONE (1&#44 4) TO (0&#44 4),ALWAYS ON CONTINUOUS,GREENHOUSE_ZONE_1_4,16.00,0.0,0.100,6.250E-003,N/A,36.000,GREENHOUSE_ZONE_0_4,0.00
 Mixing Airflow Stats Nominal, AIR MIXING FROM ZONE (1&#44 4) TO (1&#44 3),ALWAYS ON CONTINUOUS,GREENHOUSE_ZONE_1_4,16.00,0.0,0.100,6.250E-003,N/A,36.000,GREENHOUSE_ZONE_1_3,0.00
 Mixing Airflow Stats Nominal, AIR MIXING FROM ZONE (1&#44 4) TO (1&#44 5),ALWAYS ON CONTINUOUS,GREENHOUSE_ZONE_1_4,16.00,0.0,0.100,6.250E-003,N/A,36.000,GREENHOUSE_ZONE_1_5,0.00
 Mixing Airflow Stats Nominal, AIR MIXING FROM ZONE (1&#44 4) TO (2&#44 4),ALWAYS ON CONTINUOUS,GREENHOUSE_ZONE_1_4,16.00,0.0,0.100,6.250E-003,N/A,36.000,GREENHOUSE_ZONE_2_4,0.00
 Mixing Airflow Stats Nominal, AIR MIXING FROM ZONE (1&#44 5) TO (0&#44 5),ALWAYS ON CONTINUOUS,GREENHOUSE_ZONE_1_5,16.00,0.0,0.100,6.250E-003,N/A,36.000,GREENHOUSE_ZONE_0_5,0.00
 Mixing Airflow Stats Nominal, AIR MIXING FROM ZONE (1&#44 5) TO (1&#44 4),ALWAYS ON CONTINUOUS,GREENHOUSE_ZONE_1_5,16.00,0.0,0.100,6.250E-003,N/A,36.000,GREENHOUSE_ZONE_1_4,0.00
 Mixing Airflow Stats Nominal, AIR MIXING FROM ZONE (1&#44 5) TO (1&#44 6),ALWAYS ON CONTINUOUS,GREENHOUSE_ZONE_1_5,16.00,0.0,0.100,6.250E-003,N/A,36.000,GREENHOUSE_ZONE_1_6,0.00
 Mixing Airflow Stats Nominal, AIR MIXING FROM ZONE (1&#44 5) TO (2&#44 5),ALWAYS ON CONTINUOUS,GREENHOUSE_ZONE_1_5,16.00,0.0,0.100,6.250E-003,N/A,36.000,GREENHOUSE_ZONE_2_5,0.00
 Mixing Airflow Stats Nominal, AIR MIXING FROM ZONE (1&#44 6) TO (0&#44 6),ALWAYS ON CONTINUOUS,GREENHOUSE_ZONE_1_6,16.00,0.0,0.100,6.250E-003,N/A,36.000,GREENHOUSE_ZONE_0_6,0.00
 Mixing Airflow Stats Nominal, AIR MIXING FROM ZONE (1&#44 6) TO (1&#44 5),ALWAYS ON CONTINUOUS,GREENHOUSE_ZONE_1_6,16.00,0.0,0.100,6.250E-003,N/A,36.000,GREENHOUSE_ZONE_1_5,0.00
 Mixing Airflow Stats Nominal, AIR MIXING FROM ZONE (1&#44 6) TO (1&#44 7),ALWAYS ON CONTINUOUS,GREENHOUSE_ZONE_1_6,16.00,0.0,0.100,6.250E-003,N/A,36.000,GREENHOUSE_ZONE_1_7,0.00
 Mixing Airflow Stats Nominal, AIR MIXING FROM ZONE (1&#44 6) TO (2&#44 6),ALWAYS ON CONTINUOUS,GREENHOUSE_ZONE_1_6,16.00,0.0,0.100,6.250E-003,N/A,36.000,GREENHOUSE_ZONE_2_6,0.00
 Mixing Airflow Stats Nominal, AIR MIXING FROM ZONE (1&#44 7) TO (0&#44 7),ALWAYS ON CONTINUOUS,GREENHOUSE_ZONE_1_7,16.00,0.0,0.100,6.250E-003,N/A,5.625,GREENHOUSE_ZONE_0_7,0.00
 Mixing Airflow Stats Nominal, AIR MIXING FROM ZONE (1&#44 7) TO (1&#44 6),ALWAYS ON CONTINUOUS,GREENHOUSE_ZONE_1_7,16.00,0.0,0.100,6.250E-003,N/A,5.625,GREENHOUSE_ZONE_1_6,0.00
 Mixing Airflow Stats Nominal, AIR MIXING FROM ZONE (1&#44 7) TO (2&#44 7),ALWAYS ON CONTINUOUS,GREENHOUSE_ZONE_1_7,16.00,0.0,0.100,6.250E-003,N/A,5.625,GREENHOUSE_ZONE_2_7,0.00
 Mixing Airflow Stats Nominal, AIR MIXING FROM ZONE (2&#44 0) TO (1&#44 0),ALWAYS ON CONTINUOUS,GREENHOUSE_ZONE_2_0,16.00,0.0,0.100,6.250E-003,N/A,5.625,GREENHOUSE_ZONE_1_0,0.00
 Mixing Airflow Stats Nominal, AIR MIXING FROM ZONE (2&#44 0) TO (2&#44 1),ALWAYS ON CONTINUOUS,GREENHOUSE_ZONE_2_0,16.00,0.0,0.100,6.250E-003,N/A,5.625,GREENHOUSE_ZONE_2_1,0.00
 Mixing Airflow Stats Nominal, AIR MIXING FROM ZONE (2&#44 0) TO (3&#44 0),ALWAYS ON CONTINUOUS,GREENHOUSE_ZONE_2_0,16.00,0.0,0.100,6.250E-003,N/A,5.625,GREENHOUSE_ZONE_3_0,0.00
 Mixing Airflow Stats Nominal, AIR MIXING FROM ZONE (2&#44 1) TO (1&#44 1),ALWAYS ON CONTINUOUS,GREENHOUSE_ZONE_2_1,16.00,0.0,0.100,6.250E-003,N/A,36.000,GREENHOUSE_ZONE_1_1,0.00
 Mixing Airflow Stats Nominal, AIR MIXING FROM ZONE (2&#44 1) TO (2&#44 0),ALWAYS ON CONTINUOUS,GREENHOUSE_ZONE_2_1,16.00,0.0,0.100,6.250E-003,N/A,36.000,GREENHOUSE_ZONE_2_0,0.00
 Mixing Airflow Stats Nominal, AIR MIXING FROM ZONE (2&#44 1) TO (2&#44 2),ALWAYS ON CONTINUOUS,GREENHOUSE_ZONE_2_1,16.00,0.0,0.100,6.250E-003,N/A,36.000,GREENHOUSE_ZONE_2_2,0.00
 Mixing Airflow Stats Nominal, AIR MIXING FROM ZONE (2&#44 1) TO (3&#44 1),ALWAYS ON CONTINUOUS,GREENHOUSE_ZONE_2_1,16.00,0.0,0.100,6.250E-003,N/A,36.000,GREENHOUSE_ZONE_3_1,0.00
 Mixing Airflow Stats Nominal, AIR MIXING FROM ZONE (2&#44 2) TO (1&#44 2),ALWAYS ON CONTINUOUS,GREENHOUSE_ZONE_2_2,16.00,0.0,0.100,6.250E-003,N/A,36.000,GREENHOUSE_ZONE_1_2,0.00
 Mixing Airflow Stats Nominal, AIR MIXING FROM ZONE (2&#44 2) TO (2&#44 1),ALWAYS ON CONTINUOUS,GREENHOUSE_ZONE_2_2,16.00,0.0,0.100,6.250E-003,N/A,36.000,GREENHOUSE_ZONE_2_1,0.00
 Mixing Airflow Stats Nominal, AIR MIXING FROM ZONE (2&#44 2) TO (2&#44 3),ALWAYS ON CONTINUOUS,GREENHOUSE_ZONE_2_2,16.00,0.0,0.100,6.250E-003,N/A,36.000,GREENHOUSE_ZONE_2_3,0.00
 Mixing Airflow Stats Nominal, AIR MIXING FROM ZONE (2&#44 2) TO (3&#44 2),ALWAYS ON CONTINUOUS,GREENHOUSE_ZONE_2_2,16.00,0.0,0.100,6.250E-003,N/A,36.000,GREENHOUSE_ZONE_3_2,0.00
 Mixing Airflow Stats Nominal, AIR MIXING FROM ZONE (2&#44 3) TO (1&#44 3),ALWAYS ON CONTINUOUS,GREENHOUSE_ZONE_2_3,16.00,0.0,0.100,6.250E-003,N/A,36.000,GREENHOUSE_ZONE_1_3,0.00
 Mixing Airflow Stats Nominal, AIR MIXING FROM ZONE (2&#44 3) TO (2&#44 2),ALWAYS ON CONTINUOUS,GREENHOUSE_ZONE_2_3,16.00,0.0,0.100,6.250E-003,N/A,36.000,GREENHOUSE_ZONE_2_2,0.00
 Mixing Airflow Stats Nominal, AIR MIXING FROM ZONE (2&#44 3) TO (2&#44 4),ALWAYS ON CONTINUOUS,GREENHOUSE_ZONE_2_3,16.00,0.0,0.100,6.250E-003,N/A,36.000,GREENHOUSE_ZONE_2_4,0.00
 Mixing Airflow Stats Nominal, AIR MIXING FROM ZONE (2&#44 3) TO (3&#44 3),ALWAYS ON CONTINUOUS,GREENHOUSE_ZONE_2_3,16.00,0.0,0.100,6.250E-003,N/A,36.000,GREENHOUSE_ZONE_3_3,0.00
 Mixing Airflow Stats Nominal, AIR MIXING FROM ZONE (2&#44 4) TO (1&#44 4),ALWAYS ON CONTINUOUS,GREENHOUSE_ZONE_2_4,16.00,0.0,0.100,6.250E-003,N/A,36.000,GREENHOUSE_ZONE_1_4,0.00
 Mixing Airflow Stats Nominal, AIR MIXING FROM ZONE (2&#44 4) TO (2&#44 3),ALWAYS ON CONTINUOUS,GREENHOUSE_ZONE_2_4,16.00,0.0,0.100,6.250E-003,N/A,36.000,GREENHOUSE_ZONE_2_3,0.00
 Mixing Airflow Stats Nominal, AIR MIXING FROM ZONE (2&#44 4) TO (2&#44 5),ALWAYS ON CONTINUOUS,GREENHOUSE_ZONE_2_4,16.00,0.0,0.100,6.250E-003,N/A,36.000,GREENHOUSE_ZONE_2_5,0.00
 Mixing Airflow Stats Nominal, AIR MIXING FROM ZONE (2&#44 4) TO (3&#44 4),ALWAYS ON CONTINUOUS,GREENHOUSE_ZONE_2_4,16.00,0.0,0.100,6.250E-003,N/A,36.000,GREENHOUSE_ZONE_3_4,0.00
 Mixing Airflow Stats Nominal, AIR MIXING FROM ZONE (2&#44 5) TO (1&#44 5),ALWAYS ON CONTINUOUS,GREENHOUSE_ZONE_2_5,16.00,0.0,0.100,6.250E-003,N/A,36.000,GREENHOUSE_ZONE_1_5,0.00
 Mixing Airflow Stats Nominal, AIR MIXING FROM ZONE (2&#44 5) TO (2&#44 4),ALWAYS ON CONTINUOUS,GREENHOUSE_ZONE_2_5,16.00,0.0,0.100,6.250E-003,N/A,36.000,GREENHOUSE_ZONE_2_4,0.00
 Mixing Airflow Stats Nominal, AIR MIXING FROM ZONE (2&#44 5) TO (2&#44 6),ALWAYS ON CONTINUOUS,GREENHOUSE_ZONE_2_5,16.00,0.0,0.100,6.250E-003,N/A,36.000,GREENHOUSE_ZONE_2_6,0.00
 Mixing Airflow Stats Nominal, AIR MIXING FROM ZONE (2&#44 5) TO (3&#44 5),ALWAYS ON CONTINUOUS,GREENHOUSE_ZONE_2_5,16.00,0.0,0.100,6.250E-003,N/A,36.000,GREENHOUSE_ZONE_3_5,0.00
 Mixing Airflow Stats Nominal, AIR MIXING FROM ZONE (2&#44 6) TO (1&#44 6),ALWAYS ON CONTINUOUS,GREENHOUSE_ZONE_2_6,16.00,0.0,0.100,6.250E-003,N/A,36.000,GREENHOUSE_ZONE_1_6,0.00
 Mixing Airflow Stats Nominal, AIR MIXING FROM ZONE (2&#44 6) TO (2&#44 5),ALWAYS ON CONTINUOUS,GREENHOUSE_ZONE_2_6,16.00,0.0,0.100,6.250E-003,N/A,36.000,GREENHOUSE_ZONE_2_5,0.00
 Mixing Airflow Stats Nominal, AIR MIXING FROM ZONE (2&#44 6) TO (2&#44 7),ALWAYS ON CONTINUOUS,GREENHOUSE_ZONE_2_6,16.00,0.0,0.100,6.250E-003,N/A,36.000,GREENHOUSE_ZONE_2_7,0.00
 Mixing Airflow Stats Nominal, AIR MIXING FROM ZONE (2&#44 6) TO (3&#44 6),ALWAYS ON CONTINUOUS,GREENHOUSE_ZONE_2_6,16.00,0.0,0.100,6.250E-003,N/A,36.000,GREENHOUSE_ZONE_3_6,0.00
 Mixing Airflow Stats Nominal, AIR MIXING FROM ZONE (2&#44 7) TO (1&#44 7),ALWAYS ON CONTINUOUS,GREENHOUSE_ZONE_2_7,16.00,0.0,0.100,6.250E-003,N/A,5.625,GREENHOUSE_ZONE_1_7,0.00
 Mixing Airflow Stats Nominal, AIR MIXING FROM ZONE (2&#44 7) TO (2&#44 6),ALWAYS ON CONTINUOUS,GREENHOUSE_ZONE_2_7,16.00,0.0,0.100,6.250E-003,N/A,5.625,GREENHOUSE_ZONE_2_6,0.00
 Mixing Airflow Stats Nominal, AIR MIXING FROM ZONE (2&#44 7) TO (3&#44 7),ALWAYS ON CONTINUOUS,GREENHOUSE_ZONE_2_7,16.00,0.0,0.100,6.250E-003,N/A,5.625,GREENHOUSE_ZONE_3_7,0.00
 Mixing Airflow Stats Nominal, AIR MIXING FROM ZONE (3&#44 0) TO (2&#44 0),ALWAYS ON CONTINUOUS,GREENHOUSE_ZONE_3_0,16.00,0.0,0.100,6.250E-003,N/A,5.625,GREENHOUSE_ZONE_2_0,0.00
 Mixing Airflow Stats Nominal, AIR MIXING FROM ZONE (3&#44 0) TO (3&#44 1),ALWAYS ON CONTINUOUS,GREENHOUSE_ZONE_3_0,16.00,0.0,0.100,6.250E-003,N/A,5.625,GREENHOUSE_ZONE_3_1,0.00
 Mixing Airflow Stats Nominal, AIR MIXING FROM ZONE (3&#44 0) TO (4&#44 0),ALWAYS ON CONTINUOUS,GREENHOUSE_ZONE_3_0,16.00,0.0,0.100,6.250E-003,N/A,5.625,GREENHOUSE_ZONE_4_0,0.00
 Mixing Airflow Stats Nominal, AIR MIXING FROM ZONE (3&#44 1) TO (2&#44 1),ALWAYS ON CONTINUOUS,GREENHOUSE_ZONE_3_1,16.00,0.0,0.100,6.250E-003,N/A,36.000,GREENHOUSE_ZONE_2_1,0.00
 Mixing Airflow Stats Nominal, AIR MIXING FROM ZONE (3&#44 1) TO (3&#44 0),ALWAYS ON CONTINUOUS,GREENHOUSE_ZONE_3_1,16.00,0.0,0.100,6.250E-003,N/A,36.000,GREENHOUSE_ZONE_3_0,0.00
 Mixing Airflow Stats Nominal, AIR MIXING FROM ZONE (3&#44 1) TO (3&#44 2),ALWAYS ON CONTINUOUS,GREENHOUSE_ZONE_3_1,16.00,0.0,0.100,6.250E-003,N/A,36.000,GREENHOUSE_ZONE_3_2,0.00
 Mixing Airflow Stats Nominal, AIR MIXING FROM ZONE (3&#44 1) TO (4&#44 1),ALWAYS ON CONTINUOUS,GREENHOUSE_ZONE_3_1,16.00,0.0,0.100,6.250E-003,N/A,36.000,GREENHOUSE_ZONE_4_1,0.00
 Mixing Airflow Stats Nominal, AIR MIXING FROM ZONE (3&#44 2) TO (2&#44 2),ALWAYS ON CONTINUOUS,GREENHOUSE_ZONE_3_2,16.00,0.0,0.100,6.250E-003,N/A,36.000,GREENHOUSE_ZONE_2_2,0.00
 Mixing Airflow Stats Nominal, AIR MIXING FROM ZONE (3&#44 2) TO (3&#44 1),ALWAYS ON CONTINUOUS,GREENHOUSE_ZONE_3_2,16.00,0.0,0.100,6.250E-003,N/A,36.000,GREENHOUSE_ZONE_3_1,0.00
 Mixing Airflow Stats Nominal, AIR MIXING FROM ZONE (3&#44 2) TO (3&#44 3),ALWAYS ON CONTINUOUS,GREENHOUSE_ZONE_3_2,16.00,0.0,0.100,6.250E-003,N/A,36.000,GREENHOUSE_ZONE_3_3,0.00
 Mixing Airflow Stats Nominal, AIR MIXING FROM ZONE (3&#44 2) TO (4&#44 2),ALWAYS ON CONTINUOUS,GREENHOUSE_ZONE_3_2,16.00,0.0,0.100,6.250E-003,N/A,36.000,GREENHOUSE_ZONE_4_2,0.00
 Mixing Airflow Stats Nominal, AIR MIXING FROM ZONE (3&#44 3) TO (2&#44 3),ALWAYS ON CONTINUOUS,GREENHOUSE_ZONE_3_3,16.00,0.0,0.100,6.250E-003,N/A,36.000,GREENHOUSE_ZONE_2_3,0.00
 Mixing Airflow Stats Nominal, AIR MIXING FROM ZONE (3&#44 3) TO (3&#44 2),ALWAYS ON CONTINUOUS,GREENHOUSE_ZONE_3_3,16.00,0.0,0.100,6.250E-003,N/A,36.000,GREENHOUSE_ZONE_3_2,0.00
 Mixing Airflow Stats Nominal, AIR MIXING FROM ZONE (3&#44 3) TO (3&#44 4),ALWAYS ON CONTINUOUS,GREENHOUSE_ZONE_3_3,16.00,0.0,0.100,6.250E-003,N/A,36.000,GREENHOUSE_ZONE_3_4,0.00
 Mixing Airflow Stats Nominal, AIR MIXING FROM ZONE (3&#44 3) TO (4&#44 3),ALWAYS ON CONTINUOUS,GREENHOUSE_ZONE_3_3,16.00,0.0,0.100,6.250E-003,N/A,36.000,GREENHOUSE_ZONE_4_3,0.00
 Mixing Airflow Stats Nominal, AIR MIXING FROM ZONE (3&#44 4) TO (2&#44 4),ALWAYS ON CONTINUOUS,GREENHOUSE_ZONE_3_4,16.00,0.0,0.100,6.250E-003,N/A,36.000,GREENHOUSE_ZONE_2_4,0.00
 Mixing Airflow Stats Nominal, AIR MIXING FROM ZONE (3&#44 4) TO (3&#44 3),ALWAYS ON CONTINUOUS,GREENHOUSE_ZONE_3_4,16.00,0.0,0.100,6.250E-003,N/A,36.000,GREENHOUSE_ZONE_3_3,0.00
 Mixing Airflow Stats Nominal, AIR MIXING FROM ZONE (3&#44 4) TO (3&#44 5),ALWAYS ON CONTINUOUS,GREENHOUSE_ZONE_3_4,16.00,0.0,0.100,6.250E-003,N/A,36.000,GREENHOUSE_ZONE_3_5,0.00
 Mixing Airflow Stats Nominal, AIR MIXING FROM ZONE (3&#44 4) TO (4&#44 4),ALWAYS ON CONTINUOUS,GREENHOUSE_ZONE_3_4,16.00,0.0,0.100,6.250E-003,N/A,36.000,GREENHOUSE_ZONE_4_4,0.00
 Mixing Airflow Stats Nominal, AIR MIXING FROM ZONE (3&#44 5) TO (2&#44 5),ALWAYS ON CONTINUOUS,GREENHOUSE_ZONE_3_5,16.00,0.0,0.100,6.250E-003,N/A,36.000,GREENHOUSE_ZONE_2_5,0.00
 Mixing Airflow Stats Nominal, AIR MIXING FROM ZONE (3&#44 5) TO (3&#44 4),ALWAYS ON CONTINUOUS,GREENHOUSE_ZONE_3_5,16.00,0.0,0.100,6.250E-003,N/A,36.000,GREENHOUSE_ZONE_3_4,0.00
 Mixing Airflow Stats Nominal, AIR MIXING FROM ZONE (3&#44 5) TO (3&#44 6),ALWAYS ON CONTINUOUS,GREENHOUSE_ZONE_3_5,16.00,0.0,0.100,6.250E-003,N/A,36.000,GREENHOUSE_ZONE_3_6,0.00
 Mixing Airflow Stats Nominal, AIR MIXING FROM ZONE (3&#44 5) TO (4&#44 5),ALWAYS ON CONTINUOUS,GREENHOUSE_ZONE_3_5,16.00,0.0,0.100,6.250E-003,N/A,36.000,GREENHOUSE_ZONE_4_5,0.00
 Mixing Airflow Stats Nominal, AIR MIXING FROM ZONE (3&#44 6) TO (2&#44 6),ALWAYS ON CONTINUOUS,GREENHOUSE_ZONE_3_6,16.00,0.0,0.100,6.250E-003,N/A,36.000,GREENHOUSE_ZONE_2_6,0.00
 Mixing Airflow Stats Nominal, AIR MIXING FROM ZONE (3&#44 6) TO (3&#44 5),ALWAYS ON CONTINUOUS,GREENHOUSE_ZONE_3_6,16.00,0.0,0.100,6.250E-003,N/A,36.000,GREENHOUSE_ZONE_3_5,0.00
 Mixing Airflow Stats Nominal, AIR MIXING FROM ZONE (3&#44 6) TO (3&#44 7),ALWAYS ON CONTINUOUS,GREENHOUSE_ZONE_3_6,16.00,0.0,0.100,6.250E-003,N/A,36.000,GREENHOUSE_ZONE_3_7,0.00
 Mixing Airflow Stats Nominal, AIR MIXING FROM ZONE (3&#44 6) TO (4&#44 6),ALWAYS ON CONTINUOUS,GREENHOUSE_ZONE_3_6,16.00,0.0,0.100,6.250E-003,N/A,36.000,GREENHOUSE_ZONE_4_6,0.00
 Mixing Airflow Stats Nominal, AIR MIXING FROM ZONE (3&#44 7) TO (2&#44 7),ALWAYS ON CONTINUOUS,GREENHOUSE_ZONE_3_7,16.00,0.0,0.100,6.250E-003,N/A,5.625,GREENHOUSE_ZONE_2_7,0.00
 Mixing Airflow Stats Nominal, AIR MIXING FROM ZONE (3&#44 7) TO (3&#44 6),ALWAYS ON CONTINUOUS,GREENHOUSE_ZONE_3_7,16.00,0.0,0.100,6.250E-003,N/A,5.625,GREENHOUSE_ZONE_3_6,0.00
 Mixing Airflow Stats Nominal, AIR MIXING FROM ZONE (3&#44 7) TO (4&#44 7),ALWAYS ON CONTINUOUS,GREENHOUSE_ZONE_3_7,16.00,0.0,0.100,6.250E-003,N/A,5.625,GREENHOUSE_ZONE_4_7,0.00
 Mixing Airflow Stats Nominal, AIR MIXING FROM ZONE (4&#44 0) TO (3&#44 0),ALWAYS ON CONTINUOUS,GREENHOUSE_ZONE_4_0,16.00,0.0,0.100,6.250E-003,N/A,5.625,GREENHOUSE_ZONE_3_0,0.00
 Mixing Airflow Stats Nominal, AIR MIXING FROM ZONE (4&#44 0) TO (4&#44 1),ALWAYS ON CONTINUOUS,GREENHOUSE_ZONE_4_0,16.00,0.0,0.100,6.250E-003,N/A,5.625,GREENHOUSE_ZONE_4_1,0.00
 Mixing Airflow Stats Nominal, AIR MIXING FROM ZONE (4&#44 0) TO (5&#44 0),ALWAYS ON CONTINUOUS,GREENHOUSE_ZONE_4_0,16.00,0.0,0.100,6.250E-003,N/A,5.625,GREENHOUSE_ZONE_5_0,0.00
 Mixing Airflow Stats Nominal, AIR MIXING FROM ZONE (4&#44 1) TO (3&#44 1),ALWAYS ON CONTINUOUS,GREENHOUSE_ZONE_4_1,16.00,0.0,0.100,6.250E-003,N/A,36.000,GREENHOUSE_ZONE_3_1,0.00
 Mixing Airflow Stats Nominal, AIR MIXING FROM ZONE (4&#44 1) TO (4&#44 0),ALWAYS ON CONTINUOUS,GREENHOUSE_ZONE_4_1,16.00,0.0,0.100,6.250E-003,N/A,36.000,GREENHOUSE_ZONE_4_0,0.00
 Mixing Airflow Stats Nominal, AIR MIXING FROM ZONE (4&#44 1) TO (4&#44 2),ALWAYS ON CONTINUOUS,GREENHOUSE_ZONE_4_1,16.00,0.0,0.100,6.250E-003,N/A,36.000,GREENHOUSE_ZONE_4_2,0.00
 Mixing Airflow Stats Nominal, AIR MIXING FROM ZONE (4&#44 1) TO (5&#44 1),ALWAYS ON CONTINUOUS,GREENHOUSE_ZONE_4_1,16.00,0.0,0.100,6.250E-003,N/A,36.000,GREENHOUSE_ZONE_5_1,0.00
 Mixing Airflow Stats Nominal, AIR MIXING FROM ZONE (4&#44 2) TO (3&#44 2),ALWAYS ON CONTINUOUS,GREENHOUSE_ZONE_4_2,16.00,0.0,0.100,6.250E-003,N/A,36.000,GREENHOUSE_ZONE_3_2,0.00
 Mixing Airflow Stats Nominal, AIR MIXING FROM ZONE (4&#44 2) TO (4&#44 1),ALWAYS ON CONTINUOUS,GREENHOUSE_ZONE_4_2,16.00,0.0,0.100,6.250E-003,N/A,36.000,GREENHOUSE_ZONE_4_1,0.00
 Mixing Airflow Stats Nominal, AIR MIXING FROM ZONE (4&#44 2) TO (4&#44 3),ALWAYS ON CONTINUOUS,GREENHOUSE_ZONE_4_2,16.00,0.0,0.100,6.250E-003,N/A,36.000,GREENHOUSE_ZONE_4_3,0.00
 Mixing Airflow Stats Nominal, AIR MIXING FROM ZONE (4&#44 2) TO (5&#44 2),ALWAYS ON CONTINUOUS,GREENHOUSE_ZONE_4_2,16.00,0.0,0.100,6.250E-003,N/A,36.000,GREENHOUSE_ZONE_5_2,0.00
 Mixing Airflow Stats Nominal, AIR MIXING FROM ZONE (4&#44 3) TO (3&#44 3),ALWAYS ON CONTINUOUS,GREENHOUSE_ZONE_4_3,16.00,0.0,0.100,6.250E-003,N/A,36.000,GREENHOUSE_ZONE_3_3,0.00
 Mixing Airflow Stats Nominal, AIR MIXING FROM ZONE (4&#44 3) TO (4&#44 2),ALWAYS ON CONTINUOUS,GREENHOUSE_ZONE_4_3,16.00,0.0,0.100,6.250E-003,N/A,36.000,GREENHOUSE_ZONE_4_2,0.00
 Mixing Airflow Stats Nominal, AIR MIXING FROM ZONE (4&#44 3) TO (4&#44 4),ALWAYS ON CONTINUOUS,GREENHOUSE_ZONE_4_3,16.00,0.0,0.100,6.250E-003,N/A,36.000,GREENHOUSE_ZONE_4_4,0.00
 Mixing Airflow Stats Nominal, AIR MIXING FROM ZONE (4&#44 3) TO (5&#44 3),ALWAYS ON CONTINUOUS,GREENHOUSE_ZONE_4_3,16.00,0.0,0.100,6.250E-003,N/A,36.000,GREENHOUSE_ZONE_5_3,0.00
 Mixing Airflow Stats Nominal, AIR MIXING FROM ZONE (4&#44 4) TO (3&#44 4),ALWAYS ON CONTINUOUS,GREENHOUSE_ZONE_4_4,16.00,0.0,0.100,6.250E-003,N/A,36.000,GREENHOUSE_ZONE_3_4,0.00
 Mixing Airflow Stats Nominal, AIR MIXING FROM ZONE (4&#44 4) TO (4&#44 3),ALWAYS ON CONTINUOUS,GREENHOUSE_ZONE_4_4,16.00,0.0,0.100,6.250E-003,N/A,36.000,GREENHOUSE_ZONE_4_3,0.00
 Mixing Airflow Stats Nominal, AIR MIXING FROM ZONE (4&#44 4) TO (4&#44 5),ALWAYS ON CONTINUOUS,GREENHOUSE_ZONE_4_4,16.00,0.0,0.100,6.250E-003,N/A,36.000,GREENHOUSE_ZONE_4_5,0.00
 Mixing Airflow Stats Nominal, AIR MIXING FROM ZONE (4&#44 4) TO (5&#44 4),ALWAYS ON CONTINUOUS,GREENHOUSE_ZONE_4_4,16.00,0.0,0.100,6.250E-003,N/A,36.000,GREENHOUSE_ZONE_5_4,0.00
 Mixing Airflow Stats Nominal, AIR MIXING FROM ZONE (4&#44 5) TO (3&#44 5),ALWAYS ON CONTINUOUS,GREENHOUSE_ZONE_4_5,16.00,0.0,0.100,6.250E-003,N/A,36.000,GREENHOUSE_ZONE_3_5,0.00
 Mixing Airflow Stats Nominal, AIR MIXING FROM ZONE (4&#44 5) TO (4&#44 4),ALWAYS ON CONTINUOUS,GREENHOUSE_ZONE_4_5,16.00,0.0,0.100,6.250E-003,N/A,36.000,GREENHOUSE_ZONE_4_4,0.00
 Mixing Airflow Stats Nominal, AIR MIXING FROM ZONE (4&#44 5) TO (4&#44 6),ALWAYS ON CONTINUOUS,GREENHOUSE_ZONE_4_5,16.00,0.0,0.100,6.250E-003,N/A,36.000,GREENHOUSE_ZONE_4_6,0.00
 Mixing Airflow Stats Nominal, AIR MIXING FROM ZONE (4&#44 5) TO (5&#44 5),ALWAYS ON CONTINUOUS,GREENHOUSE_ZONE_4_5,16.00,0.0,0.100,6.250E-003,N/A,36.000,GREENHOUSE_ZONE_5_5,0.00
 Mixing Airflow Stats Nominal, AIR MIXING FROM ZONE (4&#44 6) TO (3&#44 6),ALWAYS ON CONTINUOUS,GREENHOUSE_ZONE_4_6,16.00,0.0,0.100,6.250E-003,N/A,36.000,GREENHOUSE_ZONE_3_6,0.00
 Mixing Airflow Stats Nominal, AIR MIXING FROM ZONE (4&#44 6) TO (4&#44 5),ALWAYS ON CONTINUOUS,GREENHOUSE_ZONE_4_6,16.00,0.0,0.100,6.250E-003,N/A,36.000,GREENHOUSE_ZONE_4_5,0.00
 Mixing Airflow Stats Nominal, AIR MIXING FROM ZONE (4&#44 6) TO (4&#44 7),ALWAYS ON CONTINUOUS,GREENHOUSE_ZONE_4_6,16.00,0.0,0.100,6.250E-003,N/A,36.000,GREENHOUSE_ZONE_4_7,0.00
 Mixing Airflow Stats Nominal, AIR MIXING FROM ZONE (4&#44 6) TO (5&#44 6),ALWAYS ON CONTINUOUS,GREENHOUSE_ZONE_4_6,16.00,0.0,0.100,6.250E-003,N/A,36.000,GREENHOUSE_ZONE_5_6,0.00
 Mixing Airflow Stats Nominal, AIR MIXING FROM ZONE (4&#44 7) TO (3&#44 7),ALWAYS ON CONTINUOUS,GREENHOUSE_ZONE_4_7,16.00,0.0,0.100,6.250E-003,N/A,5.625,GREENHOUSE_ZONE_3_7,0.00
 Mixing Airflow Stats Nominal, AIR MIXING FROM ZONE (4&#44 7) TO (4&#44 6),ALWAYS ON CONTINUOUS,GREENHOUSE_ZONE_4_7,16.00,0.0,0.100,6.250E-003,N/A,5.625,GREENHOUSE_ZONE_4_6,0.00
 Mixing Airflow Stats Nominal, AIR MIXING FROM ZONE (4&#44 7) TO (5&#44 7),ALWAYS ON CONTINUOUS,GREENHOUSE_ZONE_4_7,16.00,0.0,0.100,6.250E-003,N/A,5.625,GREENHOUSE_ZONE_5_7,0.00
 Mixing Airflow Stats Nominal, AIR MIXING FROM ZONE (5&#44 0) TO (4&#44 0),ALWAYS ON CONTINUOUS,GREENHOUSE_ZONE_5_0,16.00,0.0,0.100,6.250E-003,N/A,5.625,GREENHOUSE_ZONE_4_0,0.00
 Mixing Airflow Stats Nominal, AIR MIXING FROM ZONE (5&#44 0) TO (5&#44 1),ALWAYS ON CONTINUOUS,GREENHOUSE_ZONE_5_0,16.00,0.0,0.100,6.250E-003,N/A,5.625,GREENHOUSE_ZONE_5_1,0.00
 Mixing Airflow Stats Nominal, AIR MIXING FROM ZONE (5&#44 0) TO (6&#44 0),ALWAYS ON CONTINUOUS,GREENHOUSE_ZONE_5_0,16.00,0.0,0.100,6.250E-003,N/A,5.625,GREENHOUSE_ZONE_6_0,0.00
 Mixing Airflow Stats Nominal, AIR MIXING FROM ZONE (5&#44 1) TO (4&#44 1),ALWAYS ON CONTINUOUS,GREENHOUSE_ZONE_5_1,16.00,0.0,0.100,6.250E-003,N/A,36.000,GREENHOUSE_ZONE_4_1,0.00
 Mixing Airflow Stats Nominal, AIR MIXING FROM ZONE (5&#44 1) TO (5&#44 0),ALWAYS ON CONTINUOUS,GREENHOUSE_ZONE_5_1,16.00,0.0,0.100,6.250E-003,N/A,36.000,GREENHOUSE_ZONE_5_0,0.00
 Mixing Airflow Stats Nominal, AIR MIXING FROM ZONE (5&#44 1) TO (5&#44 2),ALWAYS ON CONTINUOUS,GREENHOUSE_ZONE_5_1,16.00,0.0,0.100,6.250E-003,N/A,36.000,GREENHOUSE_ZONE_5_2,0.00
 Mixing Airflow Stats Nominal, AIR MIXING FROM ZONE (5&#44 1) TO (6&#44 1),ALWAYS ON CONTINUOUS,GREENHOUSE_ZONE_5_1,16.00,0.0,0.100,6.250E-003,N/A,36.000,GREENHOUSE_ZONE_6_1,0.00
 Mixing Airflow Stats Nominal, AIR MIXING FROM ZONE (5&#44 2) TO (4&#44 2),ALWAYS ON CONTINUOUS,GREENHOUSE_ZONE_5_2,16.00,0.0,0.100,6.250E-003,N/A,36.000,GREENHOUSE_ZONE_4_2,0.00
 Mixing Airflow Stats Nominal, AIR MIXING FROM ZONE (5&#44 2) TO (5&#44 1),ALWAYS ON CONTINUOUS,GREENHOUSE_ZONE_5_2,16.00,0.0,0.100,6.250E-003,N/A,36.000,GREENHOUSE_ZONE_5_1,0.00
 Mixing Airflow Stats Nominal, AIR MIXING FROM ZONE (5&#44 2) TO (5&#44 3),ALWAYS ON CONTINUOUS,GREENHOUSE_ZONE_5_2,16.00,0.0,0.100,6.250E-003,N/A,36.000,GREENHOUSE_ZONE_5_3,0.00
 Mixing Airflow Stats Nominal, AIR MIXING FROM ZONE (5&#44 2) TO (6&#44 2),ALWAYS ON CONTINUOUS,GREENHOUSE_ZONE_5_2,16.00,0.0,0.100,6.250E-003,N/A,36.000,GREENHOUSE_ZONE_6_2,0.00
 Mixing Airflow Stats Nominal, AIR MIXING FROM ZONE (5&#44 3) TO (4&#44 3),ALWAYS ON CONTINUOUS,GREENHOUSE_ZONE_5_3,16.00,0.0,0.100,6.250E-003,N/A,36.000,GREENHOUSE_ZONE_4_3,0.00
 Mixing Airflow Stats Nominal, AIR MIXING FROM ZONE (5&#44 3) TO (5&#44 2),ALWAYS ON CONTINUOUS,GREENHOUSE_ZONE_5_3,16.00,0.0,0.100,6.250E-003,N/A,36.000,GREENHOUSE_ZONE_5_2,0.00
 Mixing Airflow Stats Nominal, AIR MIXING FROM ZONE (5&#44 3) TO (5&#44 4),ALWAYS ON CONTINUOUS,GREENHOUSE_ZONE_5_3,16.00,0.0,0.100,6.250E-003,N/A,36.000,GREENHOUSE_ZONE_5_4,0.00
 Mixing Airflow Stats Nominal, AIR MIXING FROM ZONE (5&#44 3) TO (6&#44 3),ALWAYS ON CONTINUOUS,GREENHOUSE_ZONE_5_3,16.00,0.0,0.100,6.250E-003,N/A,36.000,GREENHOUSE_ZONE_6_3,0.00
 Mixing Airflow Stats Nominal, AIR MIXING FROM ZONE (5&#44 4) TO (4&#44 4),ALWAYS ON CONTINUOUS,GREENHOUSE_ZONE_5_4,16.00,0.0,0.100,6.250E-003,N/A,36.000,GREENHOUSE_ZONE_4_4,0.00
 Mixing Airflow Stats Nominal, AIR MIXING FROM ZONE (5&#44 4) TO (5&#44 3),ALWAYS ON CONTINUOUS,GREENHOUSE_ZONE_5_4,16.00,0.0,0.100,6.250E-003,N/A,36.000,GREENHOUSE_ZONE_5_3,0.00
 Mixing Airflow Stats Nominal, AIR MIXING FROM ZONE (5&#44 4) TO (5&#44 5),ALWAYS ON CONTINUOUS,GREENHOUSE_ZONE_5_4,16.00,0.0,0.100,6.250E-003,N/A,36.000,GREENHOUSE_ZONE_5_5,0.00
 Mixing Airflow Stats Nominal, AIR MIXING FROM ZONE (5&#44 4) TO (6&#44 4),ALWAYS ON CONTINUOUS,GREENHOUSE_ZONE_5_4,16.00,0.0,0.100,6.250E-003,N/A,36.000,GREENHOUSE_ZONE_6_4,0.00
 Mixing Airflow Stats Nominal, AIR MIXING FROM ZONE (5&#44 5) TO (4&#44 5),ALWAYS ON CONTINUOUS,GREENHOUSE_ZONE_5_5,16.00,0.0,0.100,6.250E-003,N/A,36.000,GREENHOUSE_ZONE_4_5,0.00
 Mixing Airflow Stats Nominal, AIR MIXING FROM ZONE (5&#44 5) TO (5&#44 4),ALWAYS ON CONTINUOUS,GREENHOUSE_ZONE_5_5,16.00,0.0,0.100,6.250E-003,N/A,36.000,GREENHOUSE_ZONE_5_4,0.00
 Mixing Airflow Stats Nominal, AIR MIXING FROM ZONE (5&#44 5) TO (5&#44 6),ALWAYS ON CONTINUOUS,GREENHOUSE_ZONE_5_5,16.00,0.0,0.100,6.250E-003,N/A,36.000,GREENHOUSE_ZONE_5_6,0.00
 Mixing Airflow Stats Nominal, AIR MIXING FROM ZONE (5&#44 5) TO (6&#44 5),ALWAYS ON CONTINUOUS,GREENHOUSE_ZONE_5_5,16.00,0.0,0.100,6.250E-003,N/A,36.000,GREENHOUSE_ZONE_6_5,0.00
 Mixing Airflow Stats Nominal, AIR MIXING FROM ZONE (5&#44 6) TO (4&#44 6),ALWAYS ON CONTINUOUS,GREENHOUSE_ZONE_5_6,16.00,0.0,0.100,6.250E-003,N/A,36.000,GREENHOUSE_ZONE_4_6,0.00
 Mixing Airflow Stats Nominal, AIR MIXING FROM ZONE (5&#44 6) TO (5&#44 5),ALWAYS ON CONTINUOUS,GREENHOUSE_ZONE_5_6,16.00,0.0,0.100,6.250E-003,N/A,36.000,GREENHOUSE_ZONE_5_5,0.00
 Mixing Airflow Stats Nominal, AIR MIXING FROM ZONE (5&#44 6) TO (5&#44 7),ALWAYS ON CONTINUOUS,GREENHOUSE_ZONE_5_6,16.00,0.0,0.100,6.250E-003,N/A,36.000,GREENHOUSE_ZONE_5_7,0.00
 Mixing Airflow Stats Nominal, AIR MIXING FROM ZONE (5&#44 6) TO (6&#44 6),ALWAYS ON CONTINUOUS,GREENHOUSE_ZONE_5_6,16.00,0.0,0.100,6.250E-003,N/A,36.000,GREENHOUSE_ZONE_6_6,0.00
 Mixing Airflow Stats Nominal, AIR MIXING FROM ZONE (5&#44 7) TO (4&#44 7),ALWAYS ON CONTINUOUS,GREENHOUSE_ZONE_5_7,16.00,0.0,0.100,6.250E-003,N/A,5.625,GREENHOUSE_ZONE_4_7,0.00
 Mixing Airflow Stats Nominal, AIR MIXING FROM ZONE (5&#44 7) TO (5&#44 6),ALWAYS ON CONTINUOUS,GREENHOUSE_ZONE_5_7,16.00,0.0,0.100,6.250E-003,N/A,5.625,GREENHOUSE_ZONE_5_6,0.00
 Mixing Airflow Stats Nominal, AIR MIXING FROM ZONE (5&#44 7) TO (6&#44 7),ALWAYS ON CONTINUOUS,GREENHOUSE_ZONE_5_7,16.00,0.0,0.100,6.250E-003,N/A,5.625,GREENHOUSE_ZONE_6_7,0.00
 Mixing Airflow Stats Nominal, AIR MIXING FROM ZONE (6&#44 0) TO (5&#44 0),ALWAYS ON CONTINUOUS,GREENHOUSE_ZONE_6_0,16.00,0.0,0.100,6.250E-003,N/A,5.625,GREENHOUSE_ZONE_5_0,0.00
 Mixing Airflow Stats Nominal, AIR MIXING FROM ZONE (6&#44 0) TO (6&#44 1),ALWAYS ON CONTINUOUS,GREENHOUSE_ZONE_6_0,16.00,0.0,0.100,6.250E-003,N/A,5.625,GREENHOUSE_ZONE_6_1,0.00
 Mixing Airflow Stats Nominal, AIR MIXING FROM ZONE (6&#44 0) TO (7&#44 0),ALWAYS ON CONTINUOUS,GREENHOUSE_ZONE_6_0,16.00,0.0,0.100,6.250E-003,N/A,5.625,GREENHOUSE_ZONE_7_0,0.00
 Mixing Airflow Stats Nominal, AIR MIXING FROM ZONE (6&#44 1) TO (5&#44 1),ALWAYS ON CONTINUOUS,GREENHOUSE_ZONE_6_1,16.00,0.0,0.100,6.250E-003,N/A,36.000,GREENHOUSE_ZONE_5_1,0.00
 Mixing Airflow Stats Nominal, AIR MIXING FROM ZONE (6&#44 1) TO (6&#44 0),ALWAYS ON CONTINUOUS,GREENHOUSE_ZONE_6_1,16.00,0.0,0.100,6.250E-003,N/A,36.000,GREENHOUSE_ZONE_6_0,0.00
 Mixing Airflow Stats Nominal, AIR MIXING FROM ZONE (6&#44 1) TO (6&#44 2),ALWAYS ON CONTINUOUS,GREENHOUSE_ZONE_6_1,16.00,0.0,0.100,6.250E-003,N/A,36.000,GREENHOUSE_ZONE_6_2,0.00
 Mixing Airflow Stats Nominal, AIR MIXING FROM ZONE (6&#44 1) TO (7&#44 1),ALWAYS ON CONTINUOUS,GREENHOUSE_ZONE_6_1,16.00,0.0,0.100,6.250E-003,N/A,36.000,GREENHOUSE_ZONE_7_1,0.00
 Mixing Airflow Stats Nominal, AIR MIXING FROM ZONE (6&#44 2) TO (5&#44 2),ALWAYS ON CONTINUOUS,GREENHOUSE_ZONE_6_2,16.00,0.0,0.100,6.250E-003,N/A,36.000,GREENHOUSE_ZONE_5_2,0.00
 Mixing Airflow Stats Nominal, AIR MIXING FROM ZONE (6&#44 2) TO (6&#44 1),ALWAYS ON CONTINUOUS,GREENHOUSE_ZONE_6_2,16.00,0.0,0.100,6.250E-003,N/A,36.000,GREENHOUSE_ZONE_6_1,0.00
 Mixing Airflow Stats Nominal, AIR MIXING FROM ZONE (6&#44 2) TO (6&#44 3),ALWAYS ON CONTINUOUS,GREENHOUSE_ZONE_6_2,16.00,0.0,0.100,6.250E-003,N/A,36.000,GREENHOUSE_ZONE_6_3,0.00
 Mixing Airflow Stats Nominal, AIR MIXING FROM ZONE (6&#44 2) TO (7&#44 2),ALWAYS ON CONTINUOUS,GREENHOUSE_ZONE_6_2,16.00,0.0,0.100,6.250E-003,N/A,36.000,GREENHOUSE_ZONE_7_2,0.00
 Mixing Airflow Stats Nominal, AIR MIXING FROM ZONE (6&#44 3) TO (5&#44 3),ALWAYS ON CONTINUOUS,GREENHOUSE_ZONE_6_3,16.00,0.0,0.100,6.250E-003,N/A,36.000,GREENHOUSE_ZONE_5_3,0.00
 Mixing Airflow Stats Nominal, AIR MIXING FROM ZONE (6&#44 3) TO (6&#44 2),ALWAYS ON CONTINUOUS,GREENHOUSE_ZONE_6_3,16.00,0.0,0.100,6.250E-003,N/A,36.000,GREENHOUSE_ZONE_6_2,0.00
 Mixing Airflow Stats Nominal, AIR MIXING FROM ZONE (6&#44 3) TO (6&#44 4),ALWAYS ON CONTINUOUS,GREENHOUSE_ZONE_6_3,16.00,0.0,0.100,6.250E-003,N/A,36.000,GREENHOUSE_ZONE_6_4,0.00
 Mixing Airflow Stats Nominal, AIR MIXING FROM ZONE (6&#44 3) TO (7&#44 3),ALWAYS ON CONTINUOUS,GREENHOUSE_ZONE_6_3,16.00,0.0,0.100,6.250E-003,N/A,36.000,GREENHOUSE_ZONE_7_3,0.00
 Mixing Airflow Stats Nominal, AIR MIXING FROM ZONE (6&#44 4) TO (5&#44 4),ALWAYS ON CONTINUOUS,GREENHOUSE_ZONE_6_4,16.00,0.0,0.100,6.250E-003,N/A,36.000,GREENHOUSE_ZONE_5_4,0.00
 Mixing Airflow Stats Nominal, AIR MIXING FROM ZONE (6&#44 4) TO (6&#44 3),ALWAYS ON CONTINUOUS,GREENHOUSE_ZONE_6_4,16.00,0.0,0.100,6.250E-003,N/A,36.000,GREENHOUSE_ZONE_6_3,0.00
 Mixing Airflow Stats Nominal, AIR MIXING FROM ZONE (6&#44 4) TO (6&#44 5),ALWAYS ON CONTINUOUS,GREENHOUSE_ZONE_6_4,16.00,0.0,0.100,6.250E-003,N/A,36.000,GREENHOUSE_ZONE_6_5,0.00
 Mixing Airflow Stats Nominal, AIR MIXING FROM ZONE (6&#44 4) TO (7&#44 4),ALWAYS ON CONTINUOUS,GREENHOUSE_ZONE_6_4,16.00,0.0,0.100,6.250E-003,N/A,36.000,GREENHOUSE_ZONE_7_4,0.00
 Mixing Airflow Stats Nominal, AIR MIXING FROM ZONE (6&#44 5) TO (5&#44 5),ALWAYS ON CONTINUOUS,GREENHOUSE_ZONE_6_5,16.00,0.0,0.100,6.250E-003,N/A,36.000,GREENHOUSE_ZONE_5_5,0.00
 Mixing Airflow Stats Nominal, AIR MIXING FROM ZONE (6&#44 5) TO (6&#44 4),ALWAYS ON CONTINUOUS,GREENHOUSE_ZONE_6_5,16.00,0.0,0.100,6.250E-003,N/A,36.000,GREENHOUSE_ZONE_6_4,0.00
 Mixing Airflow Stats Nominal, AIR MIXING FROM ZONE (6&#44 5) TO (6&#44 6),ALWAYS ON CONTINUOUS,GREENHOUSE_ZONE_6_5,16.00,0.0,0.100,6.250E-003,N/A,36.000,GREENHOUSE_ZONE_6_6,0.00
 Mixing Airflow Stats Nominal, AIR MIXING FROM ZONE (6&#44 5) TO (7&#44 5),ALWAYS ON CONTINUOUS,GREENHOUSE_ZONE_6_5,16.00,0.0,0.100,6.250E-003,N/A,36.000,GREENHOUSE_ZONE_7_5,0.00
 Mixing Airflow Stats Nominal, AIR MIXING FROM ZONE (6&#44 6) TO (5&#44 6),ALWAYS ON CONTINUOUS,GREENHOUSE_ZONE_6_6,16.00,0.0,0.100,6.250E-003,N/A,36.000,GREENHOUSE_ZONE_5_6,0.00
 Mixing Airflow Stats Nominal, AIR MIXING FROM ZONE (6&#44 6) TO (6&#44 5),ALWAYS ON CONTINUOUS,GREENHOUSE_ZONE_6_6,16.00,0.0,0.100,6.250E-003,N/A,36.000,GREENHOUSE_ZONE_6_5,0.00
 Mixing Airflow Stats Nominal, AIR MIXING FROM ZONE (6&#44 6) TO (6&#44 7),ALWAYS ON CONTINUOUS,GREENHOUSE_ZONE_6_6,16.00,0.0,0.100,6.250E-003,N/A,36.000,GREENHOUSE_ZONE_6_7,0.00
 Mixing Airflow Stats Nominal, AIR MIXING FROM ZONE (6&#44 6) TO (7&#44 6),ALWAYS ON CONTINUOUS,GREENHOUSE_ZONE_6_6,16.00,0.0,0.100,6.250E-003,N/A,36.000,GREENHOUSE_ZONE_7_6,0.00
 Mixing Airflow Stats Nominal, AIR MIXING FROM ZONE (6&#44 7) TO (5&#44 7),ALWAYS ON CONTINUOUS,GREENHOUSE_ZONE_6_7,16.00,0.0,0.100,6.250E-003,N/A,5.625,GREENHOUSE_ZONE_5_7,0.00
 Mixing Airflow Stats Nominal, AIR MIXING FROM ZONE (6&#44 7) TO (6&#44 6),ALWAYS ON CONTINUOUS,GREENHOUSE_ZONE_6_7,16.00,0.0,0.100,6.250E-003,N/A,5.625,GREENHOUSE_ZONE_6_6,0.00
 Mixing Airflow Stats Nominal, AIR MIXING FROM ZONE (6&#44 7) TO (7&#44 7),ALWAYS ON CONTINUOUS,GREENHOUSE_ZONE_6_7,16.00,0.0,0.100,6.250E-003,N/A,5.625,GREENHOUSE_ZONE_7_7,0.00
 Mixing Airflow Stats Nominal, AIR MIXING FROM ZONE (7&#44 0) TO (6&#44 0),ALWAYS ON CONTINUOUS,GREENHOUSE_ZONE_7_0,16.00,0.0,0.100,6.250E-003,N/A,5.625,GREENHOUSE_ZONE_6_0,0.00
 Mixing Airflow Stats Nominal, AIR MIXING FROM ZONE (7&#44 0) TO (7&#44 1),ALWAYS ON CONTINUOUS,GREENHOUSE_ZONE_7_0,16.00,0.0,0.100,6.250E-003,N/A,5.625,GREENHOUSE_ZONE_7_1,0.00
 Mixing Airflow Stats Nominal, AIR MIXING FROM ZONE (7&#44 1) TO (6&#44 1),ALWAYS ON CONTINUOUS,GREENHOUSE_ZONE_7_1,16.00,0.0,0.100,6.250E-003,N/A,5.625,GREENHOUSE_ZONE_6_1,0.00
 Mixing Airflow Stats Nominal, AIR MIXING FROM ZONE (7&#44 1) TO (7&#44 0),ALWAYS ON CONTINUOUS,GREENHOUSE_ZONE_7_1,16.00,0.0,0.100,6.250E-003,N/A,5.625,GREENHOUSE_ZONE_7_0,0.00
 Mixing Airflow Stats Nominal, AIR MIXING FROM ZONE (7&#44 1) TO (7&#44 2),ALWAYS ON CONTINUOUS,GREENHOUSE_ZONE_7_1,16.00,0.0,0.100,6.250E-003,N/A,5.625,GREENHOUSE_ZONE_7_2,0.00
 Mixing Airflow Stats Nominal, AIR MIXING FROM ZONE (7&#44 2) TO (6&#44 2),ALWAYS ON CONTINUOUS,GREENHOUSE_ZONE_7_2,16.00,0.0,0.100,6.250E-003,N/A,5.625,GREENHOUSE_ZONE_6_2,0.00
 Mixing Airflow Stats Nominal, AIR MIXING FROM ZONE (7&#44 2) TO (7&#44 1),ALWAYS ON CONTINUOUS,GREENHOUSE_ZONE_7_2,16.00,0.0,0.100,6.250E-003,N/A,5.625,GREENHOUSE_ZONE_7_1,0.00
 Mixing Airflow Stats Nominal, AIR MIXING FROM ZONE (7&#44 2) TO (7&#44 3),ALWAYS ON CONTINUOUS,GREENHOUSE_ZONE_7_2,16.00,0.0,0.100,6.250E-003,N/A,5.625,GREENHOUSE_ZONE_7_3,0.00
 Mixing Airflow Stats Nominal, AIR MIXING FROM ZONE (7&#44 3) TO (6&#44 3),ALWAYS ON CONTINUOUS,GREENHOUSE_ZONE_7_3,16.00,0.0,0.100,6.250E-003,N/A,5.625,GREENHOUSE_ZONE_6_3,0.00
 Mixing Airflow Stats Nominal, AIR MIXING FROM ZONE (7&#44 3) TO (7&#44 2),ALWAYS ON CONTINUOUS,GREENHOUSE_ZONE_7_3,16.00,0.0,0.100,6.250E-003,N/A,5.625,GREENHOUSE_ZONE_7_2,0.00
 Mixing Airflow Stats Nominal, AIR MIXING FROM ZONE (7&#44 3) TO (7&#44 4),ALWAYS ON CONTINUOUS,GREENHOUSE_ZONE_7_3,16.00,0.0,0.100,6.250E-003,N/A,5.625,GREENHOUSE_ZONE_7_4,0.00
 Mixing Airflow Stats Nominal, AIR MIXING FROM ZONE (7&#44 4) TO (6&#44 4),ALWAYS ON CONTINUOUS,GREENHOUSE_ZONE_7_4,16.00,0.0,0.100,6.250E-003,N/A,5.625,GREENHOUSE_ZONE_6_4,0.00
 Mixing Airflow Stats Nominal, AIR MIXING FROM ZONE (7&#44 4) TO (7&#44 3),ALWAYS ON CONTINUOUS,GREENHOUSE_ZONE_7_4,16.00,0.0,0.100,6.250E-003,N/A,5.625,GREENHOUSE_ZONE_7_3,0.00
 Mixing Airflow Stats Nominal, AIR MIXING FROM ZONE (7&#44 4) TO (7&#44 5),ALWAYS ON CONTINUOUS,GREENHOUSE_ZONE_7_4,16.00,0.0,0.100,6.250E-003,N/A,5.625,GREENHOUSE_ZONE_7_5,0.00
 Mixing Airflow Stats Nominal, AIR MIXING FROM ZONE (7&#44 5) TO (6&#44 5),ALWAYS ON CONTINUOUS,GREENHOUSE_ZONE_7_5,16.00,0.0,0.100,6.250E-003,N/A,5.625,GREENHOUSE_ZONE_6_5,0.00
 Mixing Airflow Stats Nominal, AIR MIXING FROM ZONE (7&#44 5) TO (7&#44 4),ALWAYS ON CONTINUOUS,GREENHOUSE_ZONE_7_5,16.00,0.0,0.100,6.250E-003,N/A,5.625,GREENHOUSE_ZONE_7_4,0.00
 Mixing Airflow Stats Nominal, AIR MIXING FROM ZONE (7&#44 5) TO (7&#44 6),ALWAYS ON CONTINUOUS,GREENHOUSE_ZONE_7_5,16.00,0.0,0.100,6.250E-003,N/A,5.625,GREENHOUSE_ZONE_7_6,0.00
 Mixing Airflow Stats Nominal, AIR MIXING FROM ZONE (7&#44 6) TO (6&#44 6),ALWAYS ON CONTINUOUS,GREENHOUSE_ZONE_7_6,16.00,0.0,0.100,6.250E-003,N/A,5.625,GREENHOUSE_ZONE_6_6,0.00
 Mixing Airflow Stats Nominal, AIR MIXING FROM ZONE (7&#44 6) TO (7&#44 5),ALWAYS ON CONTINUOUS,GREENHOUSE_ZONE_7_6,16.00,0.0,0.100,6.250E-003,N/A,5.625,GREENHOUSE_ZONE_7_5,0.00
 Mixing Airflow Stats Nominal, AIR MIXING FROM ZONE (7&#44 6) TO (7&#44 7),ALWAYS ON CONTINUOUS,GREENHOUSE_ZONE_7_6,16.00,0.0,0.100,6.250E-003,N/A,5.625,GREENHOUSE_ZONE_7_7,0.00
 Mixing Airflow Stats Nominal, AIR MIXING FROM ZONE (7&#44 7) TO (6&#44 7),ALWAYS ON CONTINUOUS,GREENHOUSE_ZONE_7_7,16.00,0.0,0.100,6.250E-003,N/A,5.625,GREENHOUSE_ZONE_6_7,0.00
 Mixing Airflow Stats Nominal, AIR MIXING FROM ZONE (7&#44 7) TO (7&#44 6),ALWAYS ON CONTINUOUS,GREENHOUSE_ZONE_7_7,16.00,0.0,0.100,6.250E-003,N/A,5.625,GREENHOUSE_ZONE_7_6,0.00
! <AirFlow Model>, Simple
 AirFlow Model, Simple
! <RoomAir Model>, Zone Name, Mixing/Mundt/UCSDDV/UCSDCV/UCSDUFI/UCSDUFE/User Defined
RoomAir Model,GREENHOUSE ZONE ROOF,Mixing/Well-Stirred
RoomAir Model,GREENHOUSE_ZONE_0_0,Mixing/Well-Stirred
RoomAir Model,GREENHOUSE_ZONE_0_1,Mixing/Well-Stirred
RoomAir Model,GREENHOUSE_ZONE_0_2,Mixing/Well-Stirred
RoomAir Model,GREENHOUSE_ZONE_0_3,Mixing/Well-Stirred
RoomAir Model,GREENHOUSE_ZONE_0_4,Mixing/Well-Stirred
RoomAir Model,GREENHOUSE_ZONE_0_5,Mixing/Well-Stirred
RoomAir Model,GREENHOUSE_ZONE_0_6,Mixing/Well-Stirred
RoomAir Model,GREENHOUSE_ZONE_0_7,Mixing/Well-Stirred
RoomAir Model,GREENHOUSE_ZONE_1_0,Mixing/Well-Stirred
RoomAir Model,GREENHOUSE_ZONE_1_1,Mixing/Well-Stirred
RoomAir Model,GREENHOUSE_ZONE_1_2,Mixing/Well-Stirred
RoomAir Model,GREENHOUSE_ZONE_1_3,Mixing/Well-Stirred
RoomAir Model,GREENHOUSE_ZONE_1_4,Mixing/Well-Stirred
RoomAir Model,GREENHOUSE_ZONE_1_5,Mixing/Well-Stirred
RoomAir Model,GREENHOUSE_ZONE_1_6,Mixing/Well-Stirred
RoomAir Model,GREENHOUSE_ZONE_1_7,Mixing/Well-Stirred
RoomAir Model,GREENHOUSE_ZONE_2_0,Mixing/Well-Stirred
RoomAir Model,GREENHOUSE_ZONE_2_1,Mixing/Well-Stirred
RoomAir Model,GREENHOUSE_ZONE_2_2,Mixing/Well-Stirred
RoomAir Model,GREENHOUSE_ZONE_2_3,Mixing/Well-Stirred
RoomAir Model,GREENHOUSE_ZONE_2_4,Mixing/Well-Stirred
RoomAir Model,GREENHOUSE_ZONE_2_5,Mixing/Well-Stirred
RoomAir Model,GREENHOUSE_ZONE_2_6,Mixing/Well-Stirred
RoomAir Model,GREENHOUSE_ZONE_2_7,Mixing/Well-Stirred
RoomAir Model,GREENHOUSE_ZONE_3_0,Mixing/Well-Stirred
RoomAir Model,GREENHOUSE_ZONE_3_1,Mixing/Well-Stirred
RoomAir Model,GREENHOUSE_ZONE_3_2,Mixing/Well-Stirred
RoomAir Model,GREENHOUSE_ZONE_3_3,Mixing/Well-Stirred
RoomAir Model,GREENHOUSE_ZONE_3_4,Mixing/Well-Stirred
RoomAir Model,GREENHOUSE_ZONE_3_5,Mixing/Well-Stirred
RoomAir Model,GREENHOUSE_ZONE_3_6,Mixing/Well-Stirred
RoomAir Model,GREENHOUSE_ZONE_3_7,Mixing/Well-Stirred
RoomAir Model,GREENHOUSE_ZONE_4_0,Mixing/Well-Stirred
RoomAir Model,GREENHOUSE_ZONE_4_1,Mixing/Well-Stirred
RoomAir Model,GREENHOUSE_ZONE_4_2,Mixing/Well-Stirred
RoomAir Model,GREENHOUSE_ZONE_4_3,Mixing/Well-Stirred
RoomAir Model,GREENHOUSE_ZONE_4_4,Mixing/Well-Stirred
RoomAir Model,GREENHOUSE_ZONE_4_5,Mixing/Well-Stirred
RoomAir Model,GREENHOUSE_ZONE_4_6,Mixing/Well-Stirred
RoomAir Model,GREENHOUSE_ZONE_4_7,Mixing/Well-Stirred
RoomAir Model,GREENHOUSE_ZONE_5_0,Mixing/Well-Stirred
RoomAir Model,GREENHOUSE_ZONE_5_1,Mixing/Well-Stirred
RoomAir Model,GREENHOUSE_ZONE_5_2,Mixing/Well-Stirred
RoomAir Model,GREENHOUSE_ZONE_5_3,Mixing/Well-Stirred
RoomAir Model,GREENHOUSE_ZONE_5_4,Mixing/Well-Stirred
RoomAir Model,GREENHOUSE_ZONE_5_5,Mixing/Well-Stirred
RoomAir Model,GREENHOUSE_ZONE_5_6,Mixing/Well-Stirred
RoomAir Model,GREENHOUSE_ZONE_5_7,Mixing/Well-Stirred
RoomAir Model,GREENHOUSE_ZONE_6_0,Mixing/Well-Stirred
RoomAir Model,GREENHOUSE_ZONE_6_1,Mixing/Well-Stirred
RoomAir Model,GREENHOUSE_ZONE_6_2,Mixing/Well-Stirred
RoomAir Model,GREENHOUSE_ZONE_6_3,Mixing/Well-Stirred
RoomAir Model,GREENHOUSE_ZONE_6_4,Mixing/Well-Stirred
RoomAir Model,GREENHOUSE_ZONE_6_5,Mixing/Well-Stirred
RoomAir Model,GREENHOUSE_ZONE_6_6,Mixing/Well-Stirred
RoomAir Model,GREENHOUSE_ZONE_6_7,Mixing/Well-Stirred
RoomAir Model,GREENHOUSE_ZONE_7_0,Mixing/Well-Stirred
RoomAir Model,GREENHOUSE_ZONE_7_1,Mixing/Well-Stirred
RoomAir Model,GREENHOUSE_ZONE_7_2,Mixing/Well-Stirred
RoomAir Model,GREENHOUSE_ZONE_7_3,Mixing/Well-Stirred
RoomAir Model,GREENHOUSE_ZONE_7_4,Mixing/Well-Stirred
RoomAir Model,GREENHOUSE_ZONE_7_5,Mixing/Well-Stirred
RoomAir Model,GREENHOUSE_ZONE_7_6,Mixing/Well-Stirred
RoomAir Model,GREENHOUSE_ZONE_7_7,Mixing/Well-Stirred
! <AirflowNetwork Model:Control>, No Multizone or Distribution/Multizone with Distribution/Multizone without Distribution/Multizone with Distribution only during Fan Operation
AirflowNetwork Model:Control,NoMultizoneOrDistribution
! <Zone Volume Capacitance Multiplier>, Sensible Heat Capacity Multiplier, Moisture Capacity Multiplier, Carbon Dioxide Capacity Multiplier, Generic Contaminant Capacity Multiplier
Zone Volume Capacitance Multiplier,   1.000 ,   1.000,   1.000,   1.000
! <Load Timesteps in Zone Design Calculation Averaging Window>, Value
 Load Timesteps in Zone Design Calculation Averaging Window,    1
! <Heating Sizing Factor Information>, Sizing Factor ID, Value
 Heating Sizing Factor Information, Global,   1.2500    
 Heating Sizing Factor Information, Zone GREENHOUSE_ZONE_0_5,   1.2500    
 Heating Sizing Factor Information, Zone GREENHOUSE_ZONE_1_5,   1.2500    
 Heating Sizing Factor Information, Zone GREENHOUSE_ZONE_2_0,   1.2500    
 Heating Sizing Factor Information, Zone GREENHOUSE_ZONE_3_0,   1.2500    
 Heating Sizing Factor Information, Zone GREENHOUSE_ZONE_4_2,   1.2500    
 Heating Sizing Factor Information, Zone GREENHOUSE_ZONE_4_3,   1.2500    
 Heating Sizing Factor Information, Zone GREENHOUSE_ZONE_6_0,   1.2500    
 Heating Sizing Factor Information, Zone GREENHOUSE_ZONE_7_3,   1.2500    
! <Cooling Sizing Factor Information>, Sizing Factor ID, Value
 Cooling Sizing Factor Information, Global,   1.1500    
 Cooling Sizing Factor Information, Zone GREENHOUSE_ZONE_0_5,   1.1500    
 Cooling Sizing Factor Information, Zone GREENHOUSE_ZONE_1_5,   1.1500    
 Cooling Sizing Factor Information, Zone GREENHOUSE_ZONE_2_0,   1.1500    
 Cooling Sizing Factor Information, Zone GREENHOUSE_ZONE_3_0,   1.1500    
 Cooling Sizing Factor Information, Zone GREENHOUSE_ZONE_4_2,   1.1500    
 Cooling Sizing Factor Information, Zone GREENHOUSE_ZONE_4_3,   1.1500    
 Cooling Sizing Factor Information, Zone GREENHOUSE_ZONE_6_0,   1.1500    
 Cooling Sizing Factor Information, Zone GREENHOUSE_ZONE_7_3,   1.1500    
! <Zone Sizing Information>, Zone Name, Load Type, Calc Des Load {W}, User Des Load {W}, Calc Des Air Flow Rate {m3/s}, User Des Air Flow Rate {m3/s}, Design Day Name, Date/Time of Peak, Temperature at Peak {C}, Humidity Ratio at Peak {kgWater/kgDryAir}, Floor Area {m2}, # Occupants, Calc Outdoor Air Flow Rate {m3/s}, Calc DOAS Heat Addition Rate {W}
 Zone Sizing Information, GREENHOUSE_ZONE_0_5, Cooling, 0.00000, 0.00000, 0.00000, 100.00000, SIZING PERIOD DESIGN DAY 1, 1/1 01:00:00, 23.00000, 1.77342E-002, 16.00000, 0.00000, 0.00000, 0.00000
 Zone Sizing Information, GREENHOUSE_ZONE_0_5, Heating, 0.00000, 0.00000, 0.00000, 100.00000, ,  01:00:00, 23.00000, 1.77342E-002, 16.00000, 0.00000, 0.00000, 0.00000
 Zone Sizing Information, GREENHOUSE_ZONE_1_5, Cooling, 0.00000, 0.00000, 0.00000, 100.00000, SIZING PERIOD DESIGN DAY 1, 1/1 01:00:00, 23.00000, 1.77342E-002, 16.00000, 0.00000, 0.00000, 0.00000
 Zone Sizing Information, GREENHOUSE_ZONE_1_5, Heating, 0.00000, 0.00000, 0.00000, 100.00000, ,  01:00:00, 23.00000, 1.77342E-002, 16.00000, 0.00000, 0.00000, 0.00000
 Zone Sizing Information, GREENHOUSE_ZONE_2_0, Cooling, 0.00000, 0.00000, 0.00000, 100.00000, SIZING PERIOD DESIGN DAY 1, 1/1 01:00:00, 23.00000, 1.77342E-002, 16.00000, 0.00000, 0.00000, 0.00000
 Zone Sizing Information, GREENHOUSE_ZONE_2_0, Heating, 0.00000, 0.00000, 0.00000, 100.00000, ,  01:00:00, 23.00000, 1.77342E-002, 16.00000, 0.00000, 0.00000, 0.00000
 Zone Sizing Information, GREENHOUSE_ZONE_3_0, Cooling, 0.00000, 0.00000, 0.00000, 100.00000, SIZING PERIOD DESIGN DAY 1, 1/1 01:00:00, 23.00000, 1.77342E-002, 16.00000, 0.00000, 0.00000, 0.00000
 Zone Sizing Information, GREENHOUSE_ZONE_3_0, Heating, 0.00000, 0.00000, 0.00000, 100.00000, ,  01:00:00, 23.00000, 1.77342E-002, 16.00000, 0.00000, 0.00000, 0.00000
 Zone Sizing Information, GREENHOUSE_ZONE_4_2, Cooling, 175.30569, 201.60154, 4.75943E-002, 5.47335E-002, SIZING PERIOD DESIGN DAY 1, 1/1 01:00:00, 23.00000, 1.77342E-002, 16.00000, 0.00000, 0.00000, 0.00000
 Zone Sizing Information, GREENHOUSE_ZONE_4_2, Heating, 0.00000, 0.00000, 0.00000, 100.00000, ,  01:00:00, 23.00000, 1.77342E-002, 16.00000, 0.00000, 0.00000, 0.00000
 Zone Sizing Information, GREENHOUSE_ZONE_4_3, Cooling, 0.00000, 0.00000, 0.00000, 100.00000, SIZING PERIOD DESIGN DAY 1, 1/1 01:00:00, 23.00000, 1.77342E-002, 16.00000, 0.00000, 0.00000, 0.00000
 Zone Sizing Information, GREENHOUSE_ZONE_4_3, Heating, 0.00000, 0.00000, 0.00000, 100.00000, ,  01:00:00, 23.00000, 1.77342E-002, 16.00000, 0.00000, 0.00000, 0.00000
 Zone Sizing Information, GREENHOUSE_ZONE_6_0, Cooling, 0.00000, 0.00000, 0.00000, 100.00000, SIZING PERIOD DESIGN DAY 1, 1/1 01:00:00, 23.00000, 1.77342E-002, 16.00000, 0.00000, 0.00000, 0.00000
 Zone Sizing Information, GREENHOUSE_ZONE_6_0, Heating, 64.91318, 81.14148, 2.51587E-003, 3.14484E-003, SIZING PERIOD DESIGN DAY 1, 1/1 24:00:00, 23.00000, 1.77342E-002, 16.00000, 0.00000, 0.00000, 0.00000
 Zone Sizing Information, GREENHOUSE_ZONE_7_3, Cooling, 0.00000, 0.00000, 0.00000, 100.00000, SIZING PERIOD DESIGN DAY 1, 1/1 01:00:00, 23.00000, 1.77342E-002, 16.00000, 0.00000, 0.00000, 0.00000
 Zone Sizing Information, GREENHOUSE_ZONE_7_3, Heating, 0.00000, 0.00000, 0.00000, 100.00000, ,  01:00:00, 23.00000, 1.77342E-002, 16.00000, 0.00000, 0.00000, 0.00000
! <System Sizing Information>, System Name, Load Type, Peak Load Kind, User Design Capacity [W], Calc Des Air Flow Rate [m3/s], User Des Air Flow Rate [m3/s], Design Day Name, Date/Time of Peak
 System Sizing Information, AIR LOOP FOR GREENHOUSE_ZONE_0_5, Cooling, Sensible, 0.00, 0.00000, 0.00000, ,  00:00:00
 System Sizing Information, AIR LOOP FOR GREENHOUSE_ZONE_0_5, Heating, Sensible, 0.00, 0.00000, 0.00000, ,  00:00:00
 System Sizing Information, AIR LOOP FOR GREENHOUSE_ZONE_1_5, Cooling, Sensible, 0.00, 0.00000, 0.00000, ,  00:00:00
 System Sizing Information, AIR LOOP FOR GREENHOUSE_ZONE_1_5, Heating, Sensible, 0.00, 0.00000, 0.00000, ,  00:00:00
 System Sizing Information, AIR LOOP FOR GREENHOUSE_ZONE_2_0, Cooling, Sensible, 0.00, 0.00000, 0.00000, ,  00:00:00
 System Sizing Information, AIR LOOP FOR GREENHOUSE_ZONE_2_0, Heating, Sensible, 0.00, 0.00000, 0.00000, ,  00:00:00
 System Sizing Information, AIR LOOP FOR GREENHOUSE_ZONE_3_0, Cooling, Sensible, 0.00, 0.00000, 0.00000, ,  00:00:00
 System Sizing Information, AIR LOOP FOR GREENHOUSE_ZONE_3_0, Heating, Sensible, 0.00, 0.00000, 0.00000, ,  00:00:00
 System Sizing Information, AIR LOOP FOR GREENHOUSE_ZONE_4_2, Cooling, Sensible, 662.72, 5.47335E-002, 5.47335E-002, SIZING PERIOD DESIGN DAY 1, 1/1 01:00:00
 System Sizing Information, AIR LOOP FOR GREENHOUSE_ZONE_4_2, Heating, Sensible, 0.00, 0.00000, 0.00000, ,  00:00:00
 System Sizing Information, AIR LOOP FOR GREENHOUSE_ZONE_4_3, Cooling, Sensible, 0.00, 0.00000, 0.00000, ,  00:00:00
 System Sizing Information, AIR LOOP FOR GREENHOUSE_ZONE_4_3, Heating, Sensible, 0.00, 0.00000, 0.00000, ,  00:00:00
 System Sizing Information, AIR LOOP FOR GREENHOUSE_ZONE_6_0, Cooling, Sensible, 0.00, 0.00000, 0.00000, ,  00:00:00
 System Sizing Information, AIR LOOP FOR GREENHOUSE_ZONE_6_0, Heating, Sensible, 64.73, 3.14484E-003, 3.14484E-003, SIZING PERIOD DESIGN DAY 1, 1/1 24:00:00
 System Sizing Information, AIR LOOP FOR GREENHOUSE_ZONE_7_3, Cooling, Sensible, 0.00, 0.00000, 0.00000, ,  00:00:00
 System Sizing Information, AIR LOOP FOR GREENHOUSE_ZONE_7_3, Heating, Sensible, 0.00, 0.00000, 0.00000, ,  00:00:00
! <Component Sizing Information>, Component Type, Component Name, Input Field Description, Value
 Component Sizing Information, AirTerminal:SingleDuct:VAV:NoReheat, AIR TERMINAL SINGLE DUCT VAV NO REHEAT 2, Design Size Maximum Air Flow Rate [m3/s], 100.00000
 Component Sizing Information, AirTerminal:SingleDuct:VAV:NoReheat, AIR TERMINAL SINGLE DUCT VAV NO REHEAT 2, Design Size Constant Minimum Air Flow Fraction, 1.21920E-004
[...]
 DX Cooling Coil Standard Rating Information, Coil:Cooling:DX:SingleSpeed, COIL COOLING DX SINGLE SPEED 2, 473327.7, 2.51, 8.56, 9.08, 8.59, 8.7
! <DX Cooling Coil AHRI 2023 Standard Rating Information>, Component Type, Component Name, Standard Rating (Net) Cooling Capacity {W}, Standard Rating Net COP2 {W/W}, EER2 {Btu/W-h}, SEER2 User {Btu/W-h}, SEER2 Standard {Btu/W-h}, IEER 2022 {Btu/W-h}
 DX Cooling Coil AHRI 2023 Standard Rating Information, Coil:Cooling:DX:SingleSpeed, COIL COOLING DX SINGLE SPEED 2, 468494.7, 2.42, 8.26, 8.75, 8.52, 8.3
 Component Sizing Information, Fan:VariableVolume, FAN VARIABLE VOLUME 2, Design Size Maximum Flow Rate [m3/s], 30.00000
 Component Sizing Information, Fan:VariableVolume, FAN VARIABLE VOLUME 2, Design Electric Power Consumption [W], 3722.08437
 Component Sizing Information, Coil:Heating:Electric, COIL HEATING ELECTRIC 6, Design Size Nominal Capacity [W], 435890.07428
 Component Sizing Information, Coil:Cooling:DX:SingleSpeed, COIL COOLING DX SINGLE SPEED 6, Design Size Rated Air Flow Rate [m3/s], 30.00000
 Component Sizing Information, Coil:Cooling:DX:SingleSpeed, COIL COOLING DX SINGLE SPEED 6, Design Size Gross Rated Total Cooling Capacity [W], 496606.52210
 Component Sizing Information, Coil:Cooling:DX:SingleSpeed, COIL COOLING DX SINGLE SPEED 6, Design Size Gross Rated Sensible Heat Ratio, 0.80066
 DX Cooling Coil Standard Rating Information, Coil:Cooling:DX:SingleSpeed, COIL COOLING DX SINGLE SPEED 6, 473327.7, 2.51, 8.56, 9.08, 8.59, 8.7
 DX Cooling Coil AHRI 2023 Standard Rating Information, Coil:Cooling:DX:SingleSpeed, COIL COOLING DX SINGLE SPEED 6, 468494.7, 2.42, 8.26, 8.75, 8.52, 8.3
 Component Sizing Information, Fan:VariableVolume, FAN VARIABLE VOLUME 6, Design Size Maximum Flow Rate [m3/s], 30.00000
 Component Sizing Information, Fan:VariableVolume, FAN VARIABLE VOLUME 6, Design Electric Power Consumption [W], 3722.08437
 Component Sizing Information, Coil:Heating:Electric, COIL HEATING ELECTRIC 1, Design Size Nominal Capacity [W], 435890.07428
 Component Sizing Information, Coil:Cooling:DX:SingleSpeed, COIL COOLING DX SINGLE SPEED 1, Design Size Rated Air Flow Rate [m3/s], 30.00000
 Component Sizing Information, Coil:Cooling:DX:SingleSpeed, COIL COOLING DX SINGLE SPEED 1, Design Size Gross Rated Total Cooling Capacity [W], 496606.52210
 Component Sizing Information, Coil:Cooling:DX:SingleSpeed, COIL COOLING DX SINGLE SPEED 1, Design Size Gross Rated Sensible Heat Ratio, 0.80066
 DX Cooling Coil Standard Rating Information, Coil:Cooling:DX:SingleSpeed, COIL COOLING DX SINGLE SPEED 1, 473327.7, 2.51, 8.56, 9.08, 8.59, 8.7
 DX Cooling Coil AHRI 2023 Standard Rating Information, Coil:Cooling:DX:SingleSpeed, COIL COOLING DX SINGLE SPEED 1, 468494.7, 2.42, 8.26, 8.75, 8.52, 8.3
 Component Sizing Information, Fan:VariableVolume, FAN VARIABLE VOLUME 1, Design Size Maximum Flow Rate [m3/s], 30.00000
 Component Sizing Information, Fan:VariableVolume, FAN VARIABLE VOLUME 1, Design Electric Power Consumption [W], 3722.08437
 Component Sizing Information, Coil:Heating:Electric, COIL HEATING ELECTRIC 5, Design Size Nominal Capacity [W], 435890.07428
 Component Sizing Information, Coil:Cooling:DX:SingleSpeed, COIL COOLING DX SINGLE SPEED 5, Design Size Rated Air Flow Rate [m3/s], 30.00000
 Component Sizing Information, Coil:Cooling:DX:SingleSpeed, COIL COOLING DX SINGLE SPEED 5, Design Size Gross Rated Total Cooling Capacity [W], 496606.52210
 Component Sizing Information, Coil:Cooling:DX:SingleSpeed, COIL COOLING DX SINGLE SPEED 5, Design Size Gross Rated Sensible Heat Ratio, 0.80066
 DX Cooling Coil Standard Rating Information, Coil:Cooling:DX:SingleSpeed, COIL COOLING DX SINGLE SPEED 5, 473327.7, 2.51, 8.56, 9.08, 8.59, 8.7
 DX Cooling Coil AHRI 2023 Standard Rating Information, Coil:Cooling:DX:SingleSpeed, COIL COOLING DX SINGLE SPEED 5, 468494.7, 2.42, 8.26, 8.75, 8.52, 8.3
 Component Sizing Information, Fan:VariableVolume, FAN VARIABLE VOLUME 5, Design Size Maximum Flow Rate [m3/s], 30.00000
 Component Sizing Information, Fan:VariableVolume, FAN VARIABLE VOLUME 5, Design Electric Power Consumption [W], 3722.08437
 Component Sizing Information, Coil:Heating:Electric, COIL HEATING ELECTRIC 4, Design Size Nominal Capacity [W], 435890.07428
 Component Sizing Information, Coil:Cooling:DX:SingleSpeed, COIL COOLING DX SINGLE SPEED 4, Design Size Rated Air Flow Rate [m3/s], 30.00000
 Component Sizing Information, Coil:Cooling:DX:SingleSpeed, COIL COOLING DX SINGLE SPEED 4, Design Size Gross Rated Total Cooling Capacity [W], 744971.44276
 Component Sizing Information, Coil:Cooling:DX:SingleSpeed, COIL COOLING DX SINGLE SPEED 4, Design Size Gross Rated Sensible Heat Ratio, 0.70108
 DX Cooling Coil Standard Rating Information, Coil:Cooling:DX:SingleSpeed, COIL COOLING DX SINGLE SPEED 4, 721652.7, 2.66, 9.07, 9.63, 9.11, 9.5
 DX Cooling Coil AHRI 2023 Standard Rating Information, Coil:Cooling:DX:SingleSpeed, COIL COOLING DX SINGLE SPEED 4, 716819.7, 2.59, 8.85, 9.40, 9.14, 9.2
 Component Sizing Information, Fan:VariableVolume, FAN VARIABLE VOLUME 4, Design Size Maximum Flow Rate [m3/s], 30.00000
 Component Sizing Information, Fan:VariableVolume, FAN VARIABLE VOLUME 4, Design Electric Power Consumption [W], 3722.08437
 Component Sizing Information, Coil:Heating:Electric, COIL HEATING ELECTRIC 8, Design Size Nominal Capacity [W], 435890.07428
 Component Sizing Information, Coil:Cooling:DX:SingleSpeed, COIL COOLING DX SINGLE SPEED 8, Design Size Rated Air Flow Rate [m3/s], 30.00000
 Component Sizing Information, Coil:Cooling:DX:SingleSpeed, COIL COOLING DX SINGLE SPEED 8, Design Size Gross Rated Total Cooling Capacity [W], 496606.52210
 Component Sizing Information, Coil:Cooling:DX:SingleSpeed, COIL COOLING DX SINGLE SPEED 8, Design Size Gross Rated Sensible Heat Ratio, 0.80066
 DX Cooling Coil Standard Rating Information, Coil:Cooling:DX:SingleSpeed, COIL COOLING DX SINGLE SPEED 8, 473327.7, 2.51, 8.56, 9.08, 8.59, 8.7
 DX Cooling Coil AHRI 2023 Standard Rating Information, Coil:Cooling:DX:SingleSpeed, COIL COOLING DX SINGLE SPEED 8, 468494.7, 2.42, 8.26, 8.75, 8.52, 8.3
 Component Sizing Information, Fan:VariableVolume, FAN VARIABLE VOLUME 8, Design Size Maximum Flow Rate [m3/s], 30.00000
 Component Sizing Information, Fan:VariableVolume, FAN VARIABLE VOLUME 8, Design Electric Power Consumption [W], 3722.08437
 Component Sizing Information, Coil:Heating:Electric, COIL HEATING ELECTRIC 3, Design Size Nominal Capacity [W], 228346.61412
 Component Sizing Information, Coil:Cooling:DX:SingleSpeed, COIL COOLING DX SINGLE SPEED 3, Design Size Rated Air Flow Rate [m3/s], 30.00000
 Component Sizing Information, Coil:Cooling:DX:SingleSpeed, COIL COOLING DX SINGLE SPEED 3, Design Size Gross Rated Total Cooling Capacity [W], 496606.52210
 Component Sizing Information, Coil:Cooling:DX:SingleSpeed, COIL COOLING DX SINGLE SPEED 3, Design Size Gross Rated Sensible Heat Ratio, 0.80066
 DX Cooling Coil Standard Rating Information, Coil:Cooling:DX:SingleSpeed, COIL COOLING DX SINGLE SPEED 3, 473327.7, 2.51, 8.56, 9.08, 8.59, 8.7
 DX Cooling Coil AHRI 2023 Standard Rating Information, Coil:Cooling:DX:SingleSpeed, COIL COOLING DX SINGLE SPEED 3, 468494.7, 2.42, 8.26, 8.75, 8.52, 8.3
 Component Sizing Information, Fan:VariableVolume, FAN VARIABLE VOLUME 3, Design Size Maximum Flow Rate [m3/s], 30.00000
 Component Sizing Information, Fan:VariableVolume, FAN VARIABLE VOLUME 3, Design Electric Power Consumption [W], 3722.08437
 Component Sizing Information, Coil:Heating:Electric, COIL HEATING ELECTRIC 7, Design Size Nominal Capacity [W], 435890.07428
 Component Sizing Information, Coil:Cooling:DX:SingleSpeed, COIL COOLING DX SINGLE SPEED 7, Design Size Rated Air Flow Rate [m3/s], 30.00000
 Component Sizing Information, Coil:Cooling:DX:SingleSpeed, COIL COOLING DX SINGLE SPEED 7, Design Size Gross Rated Total Cooling Capacity [W], 496606.52210
 Component Sizing Information, Coil:Cooling:DX:SingleSpeed, COIL COOLING DX SINGLE SPEED 7, Design Size Gross Rated Sensible Heat Ratio, 0.80066
 DX Cooling Coil Standard Rating Information, Coil:Cooling:DX:SingleSpeed, COIL COOLING DX SINGLE SPEED 7, 473327.7, 2.51, 8.56, 9.08, 8.59, 8.7
 DX Cooling Coil AHRI 2023 Standard Rating Information, Coil:Cooling:DX:SingleSpeed, COIL COOLING DX SINGLE SPEED 7, 468494.7, 2.42, 8.26, 8.75, 8.52, 8.3
 Component Sizing Information, Fan:VariableVolume, FAN VARIABLE VOLUME 7, Design Size Maximum Flow Rate [m3/s], 30.00000
 Component Sizing Information, Fan:VariableVolume, FAN VARIABLE VOLUME 7, Design Electric Power Consumption [W], 3722.08437
! <Environment>,Environment Name,Environment Type, Start Date, End Date, Start DayOfWeek, Duration {#days}, Source:Start DayOfWeek,  Use Daylight Saving, Use Holidays, Apply Weekend Holiday Rule,  Use Rain Values, Use Snow Values, Sky Temperature Model
! <Environment:Special Days>, Special Day Name, Special Day Type, Source, Start Date, Duration {#days}
! <Environment:Daylight Saving>, Daylight Saving Indicator, Source, Start Date, End Date
! <Environment:WarmupDays>, NumberofWarmupDays
Environment,RUN PERIOD 1,WeatherFileRunPeriod,02/28/2009,02/28/2009,Saturday,1,Use RunPeriod Specified Day,No,No,Yes,Yes,Yes,Clark and Allen
Environment:Daylight Saving,No,RunPeriod Object
Environment:WarmupDays,  3
! <Warmup Convergence Information>,Zone Name,Environment Type/Name,Average Warmup Temperature Difference {deltaC},Std Dev Warmup Temperature Difference {deltaC},Max Temperature Pass/Fail Convergence,Min Temperature Pass/Fail Convergence,Average Warmup Load Difference {W},Std Dev Warmup Load Difference {W},Heating Load Pass/Fail Convergence,Cooling Load Pass/Fail Convergence
 Warmup Convergence Information,GREENHOUSE ZONE ROOF,RunPeriod: RUN PERIOD 1,1.6181890178,1.1525861096,Pass,Pass,0.0000000000,0.0000000000,Pass,Pass
 Warmup Convergence Information,GREENHOUSE_ZONE_0_0,RunPeriod: RUN PERIOD 1,0.5089703437,0.3917281816,Pass,Pass,0.0000000000,0.0000000000,Pass,Pass
 Warmup Convergence Information,GREENHOUSE_ZONE_0_1,RunPeriod: RUN PERIOD 1,0.3968322389,0.2662150771,Pass,Pass,0.0000000000,0.0000000000,Pass,Pass
 Warmup Convergence Information,GREENHOUSE_ZONE_0_2,RunPeriod: RUN PERIOD 1,0.3348011505,0.2018036533,Pass,Pass,0.0000000000,0.0000000000,Pass,Pass
 Warmup Convergence Information,GREENHOUSE_ZONE_0_3,RunPeriod: RUN PERIOD 1,0.3047377621,0.1704227579,Pass,Pass,0.0000000000,0.0000000000,Pass,Pass
 Warmup Convergence Information,GREENHOUSE_ZONE_0_4,RunPeriod: RUN PERIOD 1,0.3372843815,0.2061679281,Pass,Pass,0.0000000000,0.0000000000,Pass,Pass
 Warmup Convergence Information,GREENHOUSE_ZONE_0_5,RunPeriod: RUN PERIOD 1,0.5213026742,0.6693167270,Pass,Pass,0.0000000000,0.0000000000,Pass,Pass
 Warmup Convergence Information,GREENHOUSE_ZONE_0_6,RunPeriod: RUN PERIOD 1,0.3489224637,0.2095575224,Pass,Pass,0.0000000000,0.0000000000,Pass,Pass
 Warmup Convergence Information,GREENHOUSE_ZONE_0_7,RunPeriod: RUN PERIOD 1,0.3457150024,0.2082635353,Pass,Pass,0.0000000000,0.0000000000,Pass,Pass
 Warmup Convergence Information,GREENHOUSE_ZONE_1_0,RunPeriod: RUN PERIOD 1,0.4878583757,0.3351275466,Pass,Pass,0.0000000000,0.0000000000,Pass,Pass
 Warmup Convergence Information,GREENHOUSE_ZONE_1_1,RunPeriod: RUN PERIOD 1,0.3386778839,0.2136439479,Pass,Pass,0.0000000000,0.0000000000,Pass,Pass
 Warmup Convergence Information,GREENHOUSE_ZONE_1_2,RunPeriod: RUN PERIOD 1,0.2554006843,0.1604069291,Pass,Pass,0.0000000000,0.0000000000,Pass,Pass
 Warmup Convergence Information,GREENHOUSE_ZONE_1_3,RunPeriod: RUN PERIOD 1,0.2183725355,0.1273852509,Pass,Pass,0.0000000000,0.0000000000,Pass,Pass
 Warmup Convergence Information,GREENHOUSE_ZONE_1_4,RunPeriod: RUN PERIOD 1,0.2296660551,0.1375644155,Pass,Pass,0.0000000000,0.0000000000,Pass,Pass
 Warmup Convergence Information,GREENHOUSE_ZONE_1_5,RunPeriod: RUN PERIOD 1,0.3882670917,0.5340593630,Pass,Pass,0.0000000000,0.0000000000,Pass,Pass
 Warmup Convergence Information,GREENHOUSE_ZONE_1_6,RunPeriod: RUN PERIOD 1,0.2353969557,0.1305521090,Pass,Pass,0.0000000000,0.0000000000,Pass,Pass
 Warmup Convergence Information,GREENHOUSE_ZONE_1_7,RunPeriod: RUN PERIOD 1,0.2392905106,0.1550268751,Pass,Pass,0.0000000000,0.0000000000,Pass,Pass
 Warmup Convergence Information,GREENHOUSE_ZONE_2_0,RunPeriod: RUN PERIOD 1,0.6476708013,0.6215033593,Pass,Pass,0.0000000000,0.0000000000,Pass,Pass
 Warmup Convergence Information,GREENHOUSE_ZONE_2_1,RunPeriod: RUN PERIOD 1,0.3405159714,0.2331780960,Pass,Pass,0.0000000000,0.0000000000,Pass,Pass
 Warmup Convergence Information,GREENHOUSE_ZONE_2_2,RunPeriod: RUN PERIOD 1,0.2298218487,0.1397156416,Pass,Pass,0.0000000000,0.0000000000,Pass,Pass
 Warmup Convergence Information,GREENHOUSE_ZONE_2_3,RunPeriod: RUN PERIOD 1,0.1888991133,8.6503410512E-002,Pass,Pass,0.0000000000,0.0000000000,Pass,Pass
 Warmup Convergence Information,GREENHOUSE_ZONE_2_4,RunPeriod: RUN PERIOD 1,0.1736103447,7.8839733237E-002,Pass,Pass,0.0000000000,0.0000000000,Pass,Pass
 Warmup Convergence Information,GREENHOUSE_ZONE_2_5,RunPeriod: RUN PERIOD 1,0.1899740468,0.1147582493,Pass,Pass,0.0000000000,0.0000000000,Pass,Pass
 Warmup Convergence Information,GREENHOUSE_ZONE_2_6,RunPeriod: RUN PERIOD 1,0.1620661348,8.8511678433E-002,Pass,Pass,0.0000000000,0.0000000000,Pass,Pass
 Warmup Convergence Information,GREENHOUSE_ZONE_2_7,RunPeriod: RUN PERIOD 1,0.1954945815,0.1263734340,Pass,Pass,0.0000000000,0.0000000000,Pass,Pass
 Warmup Convergence Information,GREENHOUSE_ZONE_3_0,RunPeriod: RUN PERIOD 1,0.6326485249,0.5881860480,Pass,Pass,0.0000000000,0.0000000000,Pass,Pass
 Warmup Convergence Information,GREENHOUSE_ZONE_3_1,RunPeriod: RUN PERIOD 1,0.3188390124,0.2156244915,Pass,Pass,0.0000000000,0.0000000000,Pass,Pass
 Warmup Convergence Information,GREENHOUSE_ZONE_3_2,RunPeriod: RUN PERIOD 1,0.2284270804,0.1262083450,Pass,Pass,0.0000000000,0.0000000000,Pass,Pass
 Warmup Convergence Information,GREENHOUSE_ZONE_3_3,RunPeriod: RUN PERIOD 1,0.1859630496,0.1017677692,Pass,Pass,0.0000000000,0.0000000000,Pass,Pass
 Warmup Convergence Information,GREENHOUSE_ZONE_3_4,RunPeriod: RUN PERIOD 1,0.1471025992,6.8277795297E-002,Pass,Pass,0.0000000000,0.0000000000,Pass,Pass
 Warmup Convergence Information,GREENHOUSE_ZONE_3_5,RunPeriod: RUN PERIOD 1,0.1321309844,6.4220495480E-002,Pass,Pass,0.0000000000,0.0000000000,Pass,Pass
 Warmup Convergence Information,GREENHOUSE_ZONE_3_6,RunPeriod: RUN PERIOD 1,0.1334124230,8.0643455651E-002,Pass,Pass,0.0000000000,0.0000000000,Pass,Pass
 Warmup Convergence Information,GREENHOUSE_ZONE_3_7,RunPeriod: RUN PERIOD 1,0.1782695570,0.1222479138,Pass,Pass,0.0000000000,0.0000000000,Pass,Pass
 Warmup Convergence Information,GREENHOUSE_ZONE_4_0,RunPeriod: RUN PERIOD 1,0.4764273507,0.3057833463,Pass,Pass,0.0000000000,0.0000000000,Pass,Pass
 Warmup Convergence Information,GREENHOUSE_ZONE_4_1,RunPeriod: RUN PERIOD 1,0.3221511313,0.2031331438,Pass,Pass,0.0000000000,0.0000000000,Pass,Pass
 Warmup Convergence Information,GREENHOUSE_ZONE_4_2,RunPeriod: RUN PERIOD 1,0.2637547912,0.1773341174,Pass,Pass,0.0000000000,0.0000000000,Pass,Pass
 Warmup Convergence Information,GREENHOUSE_ZONE_4_3,RunPeriod: RUN PERIOD 1,0.2976942900,0.4307130582,Pass,Pass,0.0000000000,0.0000000000,Pass,Pass
 Warmup Convergence Information,GREENHOUSE_ZONE_4_4,RunPeriod: RUN PERIOD 1,0.1580815675,9.6346415511E-002,Pass,Pass,0.0000000000,0.0000000000,Pass,Pass
 Warmup Convergence Information,GREENHOUSE_ZONE_4_5,RunPeriod: RUN PERIOD 1,0.1180243831,7.2732519217E-002,Pass,Pass,0.0000000000,0.0000000000,Pass,Pass
 Warmup Convergence Information,GREENHOUSE_ZONE_4_6,RunPeriod: RUN PERIOD 1,0.1288460272,8.9686340022E-002,Pass,Pass,0.0000000000,0.0000000000,Pass,Pass
 Warmup Convergence Information,GREENHOUSE_ZONE_4_7,RunPeriod: RUN PERIOD 1,0.1793227115,0.1318755785,Pass,Pass,0.0000000000,0.0000000000,Pass,Pass
 Warmup Convergence Information,GREENHOUSE_ZONE_5_0,RunPeriod: RUN PERIOD 1,0.5422798452,0.3948029515,Pass,Pass,0.0000000000,0.0000000000,Pass,Pass
 Warmup Convergence Information,GREENHOUSE_ZONE_5_1,RunPeriod: RUN PERIOD 1,0.3472310514,0.2564655251,Pass,Pass,0.0000000000,0.0000000000,Pass,Pass
 Warmup Convergence Information,GREENHOUSE_ZONE_5_2,RunPeriod: RUN PERIOD 1,0.2421789561,0.1554056443,Pass,Pass,0.0000000000,0.0000000000,Pass,Pass
 Warmup Convergence Information,GREENHOUSE_ZONE_5_3,RunPeriod: RUN PERIOD 1,0.1943235154,0.1435398328,Pass,Pass,0.0000000000,0.0000000000,Pass,Pass
 Warmup Convergence Information,GREENHOUSE_ZONE_5_4,RunPeriod: RUN PERIOD 1,0.1406176576,9.8539848400E-002,Pass,Pass,0.0000000000,0.0000000000,Pass,Pass
 Warmup Convergence Information,GREENHOUSE_ZONE_5_5,RunPeriod: RUN PERIOD 1,0.1219039743,9.8296387706E-002,Pass,Pass,0.0000000000,0.0000000000,Pass,Pass
 Warmup Convergence Information,GREENHOUSE_ZONE_5_6,RunPeriod: RUN PERIOD 1,0.1415287447,0.1138896421,Pass,Pass,0.0000000000,0.0000000000,Pass,Pass
 Warmup Convergence Information,GREENHOUSE_ZONE_5_7,RunPeriod: RUN PERIOD 1,0.1948440464,0.1567334594,Pass,Pass,0.0000000000,0.0000000000,Pass,Pass
 Warmup Convergence Information,GREENHOUSE_ZONE_6_0,RunPeriod: RUN PERIOD 1,0.8195295831,1.0326388345,Pass,Pass,0.0000000000,0.0000000000,Pass,Pass
 Warmup Convergence Information,GREENHOUSE_ZONE_6_1,RunPeriod: RUN PERIOD 1,0.4240775942,0.3449952736,Pass,Pass,0.0000000000,0.0000000000,Pass,Pass
 Warmup Convergence Information,GREENHOUSE_ZONE_6_2,RunPeriod: RUN PERIOD 1,0.2718390241,0.1762517959,Pass,Pass,0.0000000000,0.0000000000,Pass,Pass
 Warmup Convergence Information,GREENHOUSE_ZONE_6_3,RunPeriod: RUN PERIOD 1,0.2420315540,0.1958934469,Pass,Pass,0.0000000000,0.0000000000,Pass,Pass
 Warmup Convergence Information,GREENHOUSE_ZONE_6_4,RunPeriod: RUN PERIOD 1,0.1773830675,0.1398282033,Pass,Pass,0.0000000000,0.0000000000,Pass,Pass
 Warmup Convergence Information,GREENHOUSE_ZONE_6_5,RunPeriod: RUN PERIOD 1,0.1520830603,0.1458624566,Pass,Pass,0.0000000000,0.0000000000,Pass,Pass
 Warmup Convergence Information,GREENHOUSE_ZONE_6_6,RunPeriod: RUN PERIOD 1,0.1737924314,0.1638523209,Pass,Pass,0.0000000000,0.0000000000,Pass,Pass
 Warmup Convergence Information,GREENHOUSE_ZONE_6_7,RunPeriod: RUN PERIOD 1,0.2274482321,0.2079335536,Pass,Pass,0.0000000000,0.0000000000,Pass,Pass
 Warmup Convergence Information,GREENHOUSE_ZONE_7_0,RunPeriod: RUN PERIOD 1,0.6309636726,0.4815310605,Pass,Pass,0.0000000000,0.0000000000,Pass,Pass
 Warmup Convergence Information,GREENHOUSE_ZONE_7_1,RunPeriod: RUN PERIOD 1,0.4185947763,0.3284018829,Pass,Pass,0.0000000000,0.0000000000,Pass,Pass
 Warmup Convergence Information,GREENHOUSE_ZONE_7_2,RunPeriod: RUN PERIOD 1,0.3335180958,0.2729820898,Pass,Pass,0.0000000000,0.0000000000,Pass,Pass
 Warmup Convergence Information,GREENHOUSE_ZONE_7_3,RunPeriod: RUN PERIOD 1,0.4831615152,0.7463276551,Pass,Pass,0.0000000000,0.0000000000,Pass,Pass
 Warmup Convergence Information,GREENHOUSE_ZONE_7_4,RunPeriod: RUN PERIOD 1,0.2795190112,0.2718910543,Pass,Pass,0.0000000000,0.0000000000,Pass,Pass
 Warmup Convergence Information,GREENHOUSE_ZONE_7_5,RunPeriod: RUN PERIOD 1,0.2249048149,0.2536479547,Pass,Pass,0.0000000000,0.0000000000,Pass,Pass
 Warmup Convergence Information,GREENHOUSE_ZONE_7_6,RunPeriod: RUN PERIOD 1,0.2429279663,0.2735580440,Pass,Pass,0.0000000000,0.0000000000,Pass,Pass
 Warmup Convergence Information,GREENHOUSE_ZONE_7_7,RunPeriod: RUN PERIOD 1,0.2936745629,0.3219882425,Pass,Pass,0.0000000000,0.0000000000,Pass,Pass
! <Program Control Information:Threads/Parallel Sims>, Threading Supported,Maximum Number of Threads, Env Set Threads (OMP_NUM_THREADS), EP Env Set Threads (EP_OMP_NUM_THREADS), IDF Set Threads, Number of Threads Used (Interior Radiant Exchange), Number Nominal Surfaces, Number Parallel Sims
Program Control:Threads/Parallel Sims, No,1, N/A, N/A, N/A, N/A, N/A, N/A
End of Data
